data_graphite_ortho

_audit_creation_method RASPA-1.0
_audit_creation_date 2012-2-3
_audit_author_name 'David Dubbeldam'

_cell_length_a    39.36    
_cell_length_b    38.339999999999996    
_cell_length_c    44.4    
_cell_angle_alpha 90
_cell_angle_beta  90
_cell_angle_gamma 90
_cell_volume      67002.37      

_symmetry_cell_setting          triclinic
_symmetry_space_group_name_Hall 'P 1'
_symmetry_space_group_name_H-M  'P 1'
_symmetry_Int_Tables_number     1

_symmetry_equiv_pos_as_xyz 'x,y,z'

loop_
_atom_site_label
_atom_site_type_symbol
_atom_site_fract_x
_atom_site_fract_y
_atom_site_fract_z
_atom_site_charge
C1        C        0.0        0.018519        0.27027        0        
C2        C        0.03125        0.074075        0.27027        0        
C3        C        0.0        0.092592        0.27027        0        
C4        C        0.03125        0.037037        0.27027        0        
C1        C        0.0        0.12963        0.27027        0        
C2        C        0.03125        0.185185        0.27027        0        
C3        C        0.0        0.203703        0.27027        0        
C4        C        0.03125        0.148148        0.27027        0        
C1        C        0.0        0.24074099999999998        0.27027        0        
C2        C        0.03125        0.296297        0.27027        0        
C3        C        0.0        0.314815        0.27027        0        
C4        C        0.03125        0.259259        0.27027        0        
C1        C        0.0        0.351852        0.27027        0        
C2        C        0.03125        0.407408        0.27027        0        
C3        C        0.0        0.425925        0.27027        0        
C4        C        0.03125        0.37037        0.27027        0        
C1        C        0.0        0.46296300000000007        0.27027        0        
C2        C        0.03125        0.518519        0.27027        0        
C3        C        0.0        0.537037        0.27027        0        
C4        C        0.03125        0.481481        0.27027        0        
C1        C        0.0        0.574075        0.27027        0        
C2        C        0.03125        0.62963        0.27027        0        
C3        C        0.0        0.648148        0.27027        0        
C4        C        0.03125        0.592592        0.27027        0        
C1        C        0.0625        0.018519        0.27027        0        
C2        C        0.09375        0.074075        0.27027        0        
C3        C        0.0625        0.092592        0.27027        0        
C4        C        0.09375        0.037037        0.27027        0        
C1        C        0.0625        0.12963        0.27027        0        
C2        C        0.09375        0.185185        0.27027        0        
C3        C        0.0625        0.203703        0.27027        0        
C4        C        0.09375        0.148148        0.27027        0        
C1        C        0.0625        0.24074099999999998        0.27027        0        
C2        C        0.09375        0.296297        0.27027        0        
C3        C        0.0625        0.314815        0.27027        0        
C4        C        0.09375        0.259259        0.27027        0        
C1        C        0.0625        0.351852        0.27027        0        
C2        C        0.09375        0.407408        0.27027        0        
C3        C        0.0625        0.425925        0.27027        0        
C4        C        0.09375        0.37037        0.27027        0        
C1        C        0.0625        0.46296300000000007        0.27027        0        
C2        C        0.09375        0.518519        0.27027        0        
C3        C        0.0625        0.537037        0.27027        0        
C4        C        0.09375        0.481481        0.27027        0        
C1        C        0.0625        0.574075        0.27027        0        
C2        C        0.09375        0.62963        0.27027        0        
C3        C        0.0625        0.648148        0.27027        0        
C4        C        0.09375        0.592592        0.27027        0        
C1        C        0.125        0.018519        0.27027        0        
C2        C        0.15625        0.074075        0.27027        0        
C3        C        0.125        0.092592        0.27027        0        
C4        C        0.15625        0.037037        0.27027        0        
C1        C        0.125        0.12963        0.27027        0        
C2        C        0.15625        0.185185        0.27027        0        
C3        C        0.125        0.203703        0.27027        0        
C4        C        0.15625        0.148148        0.27027        0        
C1        C        0.125        0.24074099999999998        0.27027        0        
C2        C        0.15625        0.296297        0.27027        0        
C3        C        0.125        0.314815        0.27027        0        
C4        C        0.15625        0.259259        0.27027        0        
C1        C        0.125        0.351852        0.27027        0        
C2        C        0.15625        0.407408        0.27027        0        
C3        C        0.125        0.425925        0.27027        0        
C4        C        0.15625        0.37037        0.27027        0        
C1        C        0.125        0.46296300000000007        0.27027        0        
C2        C        0.15625        0.518519        0.27027        0        
C3        C        0.125        0.537037        0.27027        0        
C4        C        0.15625        0.481481        0.27027        0        
C1        C        0.125        0.574075        0.27027        0        
C2        C        0.15625        0.62963        0.27027        0        
C3        C        0.125        0.648148        0.27027        0        
C4        C        0.15625        0.592592        0.27027        0        
C1        C        0.1875        0.018519        0.27027        0        
C2        C        0.21875        0.074075        0.27027        0        
C3        C        0.1875        0.092592        0.27027        0        
C4        C        0.21875        0.037037        0.27027        0        
C1        C        0.1875        0.12963        0.27027        0        
C2        C        0.21875        0.185185        0.27027        0        
C3        C        0.1875        0.203703        0.27027        0        
C4        C        0.21875        0.148148        0.27027        0        
C1        C        0.1875        0.24074099999999998        0.27027        0        
C2        C        0.21875        0.296297        0.27027        0        
C3        C        0.1875        0.314815        0.27027        0        
C4        C        0.21875        0.259259        0.27027        0        
C1        C        0.1875        0.351852        0.27027        0        
C2        C        0.21875        0.407408        0.27027        0        
C3        C        0.1875        0.425925        0.27027        0        
C4        C        0.21875        0.37037        0.27027        0        
C1        C        0.1875        0.46296300000000007        0.27027        0        
C2        C        0.21875        0.518519        0.27027        0        
C3        C        0.1875        0.537037        0.27027        0        
C4        C        0.21875        0.481481        0.27027        0        
C1        C        0.1875        0.574075        0.27027        0        
C2        C        0.21875        0.62963        0.27027        0        
C3        C        0.1875        0.648148        0.27027        0        
C4        C        0.21875        0.592592        0.27027        0        
C1        C        0.25        0.018519        0.27027        0        
C2        C        0.28125        0.074075        0.27027        0        
C3        C        0.25        0.092592        0.27027        0        
C4        C        0.28125        0.037037        0.27027        0        
C1        C        0.25        0.12963        0.27027        0        
C2        C        0.28125        0.185185        0.27027        0        
C3        C        0.25        0.203703        0.27027        0        
C4        C        0.28125        0.148148        0.27027        0        
C1        C        0.25        0.24074099999999998        0.27027        0        
C2        C        0.28125        0.296297        0.27027        0        
C3        C        0.25        0.314815        0.27027        0        
C4        C        0.28125        0.259259        0.27027        0        
C1        C        0.25        0.351852        0.27027        0        
C2        C        0.28125        0.407408        0.27027        0        
C3        C        0.25        0.425925        0.27027        0        
C4        C        0.28125        0.37037        0.27027        0        
C1        C        0.25        0.46296300000000007        0.27027        0        
C2        C        0.28125        0.518519        0.27027        0        
C3        C        0.25        0.537037        0.27027        0        
C4        C        0.28125        0.481481        0.27027        0        
C1        C        0.25        0.574075        0.27027        0        
C2        C        0.28125        0.62963        0.27027        0        
C3        C        0.25        0.648148        0.27027        0        
C4        C        0.28125        0.592592        0.27027        0        
C1        C        0.3125        0.018519        0.27027        0        
C2        C        0.34375        0.074075        0.27027        0        
C3        C        0.3125        0.092592        0.27027        0        
C4        C        0.34375        0.037037        0.27027        0        
C1        C        0.3125        0.12963        0.27027        0        
C2        C        0.34375        0.185185        0.27027        0        
C3        C        0.3125        0.203703        0.27027        0        
C4        C        0.34375        0.148148        0.27027        0        
C1        C        0.3125        0.24074099999999998        0.27027        0        
C2        C        0.34375        0.296297        0.27027        0        
C3        C        0.3125        0.314815        0.27027        0        
C4        C        0.34375        0.259259        0.27027        0        
C1        C        0.3125        0.351852        0.27027        0        
C2        C        0.34375        0.407408        0.27027        0        
C3        C        0.3125        0.425925        0.27027        0        
C4        C        0.34375        0.37037        0.27027        0        
C1        C        0.3125        0.46296300000000007        0.27027        0        
C2        C        0.34375        0.518519        0.27027        0        
C3        C        0.3125        0.537037        0.27027        0        
C4        C        0.34375        0.481481        0.27027        0        
C1        C        0.3125        0.574075        0.27027        0        
C2        C        0.34375        0.62963        0.27027        0        
C3        C        0.3125        0.648148        0.27027        0        
C4        C        0.34375        0.592592        0.27027        0        
C1        C        0.375        0.018519        0.27027        0        
C2        C        0.40625        0.074075        0.27027        0        
C3        C        0.375        0.092592        0.27027        0        
C4        C        0.40625        0.037037        0.27027        0        
C1        C        0.375        0.12963        0.27027        0        
C2        C        0.40625        0.185185        0.27027        0        
C3        C        0.375        0.203703        0.27027        0        
C4        C        0.40625        0.148148        0.27027        0        
C1        C        0.375        0.24074099999999998        0.27027        0        
C2        C        0.40625        0.296297        0.27027        0        
C3        C        0.375        0.314815        0.27027        0        
C4        C        0.40625        0.259259        0.27027        0        
C1        C        0.375        0.351852        0.27027        0        
C2        C        0.40625        0.407408        0.27027        0        
C3        C        0.375        0.425925        0.27027        0        
C4        C        0.40625        0.37037        0.27027        0        
C1        C        0.375        0.46296300000000007        0.27027        0        
C2        C        0.40625        0.518519        0.27027        0        
C3        C        0.375        0.537037        0.27027        0        
C4        C        0.40625        0.481481        0.27027        0        
C1        C        0.375        0.574075        0.27027        0        
C2        C        0.40625        0.62963        0.27027        0        
C3        C        0.375        0.648148        0.27027        0        
C4        C        0.40625        0.592592        0.27027        0        
C1        C        0.4375        0.018519        0.27027        0        
C2        C        0.46875        0.074075        0.27027        0        
C3        C        0.4375        0.092592        0.27027        0        
C4        C        0.46875        0.037037        0.27027        0        
C1        C        0.4375        0.12963        0.27027        0        
C2        C        0.46875        0.185185        0.27027        0        
C3        C        0.4375        0.203703        0.27027        0        
C4        C        0.46875        0.148148        0.27027        0        
C1        C        0.4375        0.24074099999999998        0.27027        0        
C2        C        0.46875        0.296297        0.27027        0        
C3        C        0.4375        0.314815        0.27027        0        
C4        C        0.46875        0.259259        0.27027        0        
C1        C        0.4375        0.351852        0.27027        0        
C2        C        0.46875        0.407408        0.27027        0        
C3        C        0.4375        0.425925        0.27027        0        
C4        C        0.46875        0.37037        0.27027        0        
C1        C        0.4375        0.46296300000000007        0.27027        0        
C2        C        0.46875        0.518519        0.27027        0        
C3        C        0.4375        0.537037        0.27027        0        
C4        C        0.46875        0.481481        0.27027        0        
C1        C        0.4375        0.574075        0.27027        0        
C2        C        0.46875        0.62963        0.27027        0        
C3        C        0.4375        0.648148        0.27027        0        
C4        C        0.46875        0.592592        0.27027        0        
C1        C        0.5        0.018519        0.27027        0        
C2        C        0.53125        0.074075        0.27027        0        
C3        C        0.5        0.092592        0.27027        0        
C4        C        0.53125        0.037037        0.27027        0        
C1        C        0.5        0.12963        0.27027        0        
C2        C        0.53125        0.185185        0.27027        0        
C3        C        0.5        0.203703        0.27027        0        
C4        C        0.53125        0.148148        0.27027        0        
C1        C        0.5        0.24074099999999998        0.27027        0        
C2        C        0.53125        0.296297        0.27027        0        
C3        C        0.5        0.314815        0.27027        0        
C4        C        0.53125        0.259259        0.27027        0        
C1        C        0.5        0.351852        0.27027        0        
C2        C        0.53125        0.407408        0.27027        0        
C3        C        0.5        0.425925        0.27027        0        
C4        C        0.53125        0.37037        0.27027        0        
C1        C        0.5        0.46296300000000007        0.27027        0        
C2        C        0.53125        0.518519        0.27027        0        
C3        C        0.5        0.537037        0.27027        0        
C4        C        0.53125        0.481481        0.27027        0        
C1        C        0.5        0.574075        0.27027        0        
C2        C        0.53125        0.62963        0.27027        0        
C3        C        0.5        0.648148        0.27027        0        
C4        C        0.53125        0.592592        0.27027        0        
C1        C        0.5625        0.018519        0.27027        0        
C2        C        0.59375        0.074075        0.27027        0        
C3        C        0.5625        0.092592        0.27027        0        
C4        C        0.59375        0.037037        0.27027        0        
C1        C        0.5625        0.12963        0.27027        0        
C2        C        0.59375        0.185185        0.27027        0        
C3        C        0.5625        0.203703        0.27027        0        
C4        C        0.59375        0.148148        0.27027        0        
C1        C        0.5625        0.24074099999999998        0.27027        0        
C2        C        0.59375        0.296297        0.27027        0        
C3        C        0.5625        0.314815        0.27027        0        
C4        C        0.59375        0.259259        0.27027        0        
C1        C        0.5625        0.351852        0.27027        0        
C2        C        0.59375        0.407408        0.27027        0        
C3        C        0.5625        0.425925        0.27027        0        
C4        C        0.59375        0.37037        0.27027        0        
C1        C        0.5625        0.46296300000000007        0.27027        0        
C2        C        0.59375        0.518519        0.27027        0        
C3        C        0.5625        0.537037        0.27027        0        
C4        C        0.59375        0.481481        0.27027        0        
C1        C        0.5625        0.574075        0.27027        0        
C2        C        0.59375        0.62963        0.27027        0        
C3        C        0.5625        0.648148        0.27027        0        
C4        C        0.59375        0.592592        0.27027        0        
C1        C        0.625        0.018519        0.27027        0        
C2        C        0.65625        0.074075        0.27027        0        
C3        C        0.625        0.092592        0.27027        0        
C4        C        0.65625        0.037037        0.27027        0        
C1        C        0.625        0.12963        0.27027        0        
C2        C        0.65625        0.185185        0.27027        0        
C3        C        0.625        0.203703        0.27027        0        
C4        C        0.65625        0.148148        0.27027        0        
C1        C        0.625        0.24074099999999998        0.27027        0        
C2        C        0.65625        0.296297        0.27027        0        
C3        C        0.625        0.314815        0.27027        0        
C4        C        0.65625        0.259259        0.27027        0        
C1        C        0.625        0.351852        0.27027        0        
C2        C        0.65625        0.407408        0.27027        0        
C3        C        0.625        0.425925        0.27027        0        
C4        C        0.65625        0.37037        0.27027        0        
C1        C        0.625        0.46296300000000007        0.27027        0        
C2        C        0.65625        0.518519        0.27027        0        
C3        C        0.625        0.537037        0.27027        0        
C4        C        0.65625        0.481481        0.27027        0        
C1        C        0.625        0.574075        0.27027        0        
C2        C        0.65625        0.62963        0.27027        0        
C3        C        0.625        0.648148        0.27027        0        
C4        C        0.65625        0.592592        0.27027        0        
C1        C        0.6875        0.018519        0.27027        0        
C2        C        0.71875        0.074075        0.27027        0        
C3        C        0.6875        0.092592        0.27027        0        
C4        C        0.71875        0.037037        0.27027        0        
C1        C        0.6875        0.12963        0.27027        0        
C2        C        0.71875        0.185185        0.27027        0        
C3        C        0.6875        0.203703        0.27027        0        
C4        C        0.71875        0.148148        0.27027        0        
C1        C        0.6875        0.24074099999999998        0.27027        0        
C2        C        0.71875        0.296297        0.27027        0        
C3        C        0.6875        0.314815        0.27027        0        
C4        C        0.71875        0.259259        0.27027        0        
C1        C        0.6875        0.351852        0.27027        0        
C2        C        0.71875        0.407408        0.27027        0        
C3        C        0.6875        0.425925        0.27027        0        
C4        C        0.71875        0.37037        0.27027        0        
C1        C        0.6875        0.46296300000000007        0.27027        0        
C2        C        0.71875        0.518519        0.27027        0        
C3        C        0.6875        0.537037        0.27027        0        
C4        C        0.71875        0.481481        0.27027        0        
C1        C        0.6875        0.574075        0.27027        0        
C2        C        0.71875        0.62963        0.27027        0        
C3        C        0.6875        0.648148        0.27027        0        
C4        C        0.71875        0.592592        0.27027        0        
C1        C        0.75        0.018519        0.27027        0        
C2        C        0.78125        0.074075        0.27027        0        
C3        C        0.75        0.092592        0.27027        0        
C4        C        0.78125        0.037037        0.27027        0        
C1        C        0.75        0.12963        0.27027        0        
C2        C        0.78125        0.185185        0.27027        0        
C3        C        0.75        0.203703        0.27027        0        
C4        C        0.78125        0.148148        0.27027        0        
C1        C        0.75        0.24074099999999998        0.27027        0        
C2        C        0.78125        0.296297        0.27027        0        
C3        C        0.75        0.314815        0.27027        0        
C4        C        0.78125        0.259259        0.27027        0        
C1        C        0.75        0.351852        0.27027        0        
C2        C        0.78125        0.407408        0.27027        0        
C3        C        0.75        0.425925        0.27027        0        
C4        C        0.78125        0.37037        0.27027        0        
C1        C        0.75        0.46296300000000007        0.27027        0        
C2        C        0.78125        0.518519        0.27027        0        
C3        C        0.75        0.537037        0.27027        0        
C4        C        0.78125        0.481481        0.27027        0        
C1        C        0.75        0.574075        0.27027        0        
C2        C        0.78125        0.62963        0.27027        0        
C3        C        0.75        0.648148        0.27027        0        
C4        C        0.78125        0.592592        0.27027        0        
C1        C        0.8125        0.018519        0.27027        0        
C2        C        0.84375        0.074075        0.27027        0        
C3        C        0.8125        0.092592        0.27027        0        
C4        C        0.84375        0.037037        0.27027        0        
C1        C        0.8125        0.12963        0.27027        0        
C2        C        0.84375        0.185185        0.27027        0        
C3        C        0.8125        0.203703        0.27027        0        
C4        C        0.84375        0.148148        0.27027        0        
C1        C        0.8125        0.24074099999999998        0.27027        0        
C2        C        0.84375        0.296297        0.27027        0        
C3        C        0.8125        0.314815        0.27027        0        
C4        C        0.84375        0.259259        0.27027        0        
C1        C        0.8125        0.351852        0.27027        0        
C2        C        0.84375        0.407408        0.27027        0        
C3        C        0.8125        0.425925        0.27027        0        
C4        C        0.84375        0.37037        0.27027        0        
C1        C        0.8125        0.46296300000000007        0.27027        0        
C2        C        0.84375        0.518519        0.27027        0        
C3        C        0.8125        0.537037        0.27027        0        
C4        C        0.84375        0.481481        0.27027        0        
C1        C        0.8125        0.574075        0.27027        0        
C2        C        0.84375        0.62963        0.27027        0        
C3        C        0.8125        0.648148        0.27027        0        
C4        C        0.84375        0.592592        0.27027        0        
C1        C        0.875        0.018519        0.27027        0        
C2        C        0.9062500000000001        0.074075        0.27027        0        
C3        C        0.875        0.092592        0.27027        0        
C4        C        0.9062500000000001        0.037037        0.27027        0        
C1        C        0.875        0.12963        0.27027        0        
C2        C        0.9062500000000001        0.185185        0.27027        0        
C3        C        0.875        0.203703        0.27027        0        
C4        C        0.9062500000000001        0.148148        0.27027        0        
C1        C        0.875        0.24074099999999998        0.27027        0        
C2        C        0.9062500000000001        0.296297        0.27027        0        
C3        C        0.875        0.314815        0.27027        0        
C4        C        0.9062500000000001        0.259259        0.27027        0        
C1        C        0.875        0.351852        0.27027        0        
C2        C        0.9062500000000001        0.407408        0.27027        0        
C3        C        0.875        0.425925        0.27027        0        
C4        C        0.9062500000000001        0.37037        0.27027        0        
C1        C        0.875        0.46296300000000007        0.27027        0        
C2        C        0.9062500000000001        0.518519        0.27027        0        
C3        C        0.875        0.537037        0.27027        0        
C4        C        0.9062500000000001        0.481481        0.27027        0        
C1        C        0.875        0.574075        0.27027        0        
C2        C        0.9062500000000001        0.62963        0.27027        0        
C3        C        0.875        0.648148        0.27027        0        
C4        C        0.9062500000000001        0.592592        0.27027        0        
C1        C        0.9375        0.018519        0.27027        0        
C2        C        0.9687500000000001        0.074075        0.27027        0        
C3        C        0.9375        0.092592        0.27027        0        
C4        C        0.9687500000000001        0.037037        0.27027        0        
C1        C        0.9375        0.12963        0.27027        0        
C2        C        0.9687500000000001        0.185185        0.27027        0        
C3        C        0.9375        0.203703        0.27027        0        
C4        C        0.9687500000000001        0.148148        0.27027        0        
C1        C        0.9375        0.24074099999999998        0.27027        0        
C2        C        0.9687500000000001        0.296297        0.27027        0        
C3        C        0.9375        0.314815        0.27027        0        
C4        C        0.9687500000000001        0.259259        0.27027        0        
C1        C        0.9375        0.351852        0.27027        0        
C2        C        0.9687500000000001        0.407408        0.27027        0        
C3        C        0.9375        0.425925        0.27027        0        
C4        C        0.9687500000000001        0.37037        0.27027        0        
C1        C        0.9375        0.46296300000000007        0.27027        0        
C2        C        0.9687500000000001        0.518519        0.27027        0        
C3        C        0.9375        0.537037        0.27027        0        
C4        C        0.9687500000000001        0.481481        0.27027        0        
C1        C        0.9375        0.574075        0.27027        0        
C2        C        0.9687500000000001        0.62963        0.27027        0        
C3        C        0.9375        0.648148        0.27027        0        
C4        C        0.9687500000000001        0.592592        0.27027        0        
C1        C        0.0        0.685186        0.27027        0        
C1        C        0.0625        0.685186        0.27027        0        
C1        C        0.125        0.685186        0.27027        0        
C1        C        0.1875        0.685186        0.27027        0        
C1        C        0.25        0.685186        0.27027        0        
C1        C        0.3125        0.685186        0.27027        0        
C1        C        0.375        0.685186        0.27027        0        
C1        C        0.4375        0.685186        0.27027        0        
C1        C        0.5        0.685186        0.27027        0        
C1        C        0.5625        0.685186        0.27027        0        
C1        C        0.625        0.685186        0.27027        0        
C1        C        0.6875        0.685186        0.27027        0        
C1        C        0.75        0.685186        0.27027        0        
C1        C        0.8125        0.685186        0.27027        0        
C1        C        0.875        0.685186        0.27027        0        
C1        C        0.9375        0.685186        0.27027        0        
C2        C        0.03125        0.740741        0.27027        0        
C2        C        0.09375        0.740741        0.27027        0        
C2        C        0.15625        0.740741        0.27027        0        
C2        C        0.21875        0.740741        0.27027        0        
C2        C        0.28125        0.740741        0.27027        0        
C2        C        0.34375        0.740741        0.27027        0        
C2        C        0.40625        0.740741        0.27027        0        
C2        C        0.46875        0.740741        0.27027        0        
C2        C        0.53125        0.740741        0.27027        0        
C2        C        0.59375        0.740741        0.27027        0        
C2        C        0.65625        0.740741        0.27027        0        
C2        C        0.71875        0.740741        0.27027        0        
C2        C        0.78125        0.740741        0.27027        0        
C2        C        0.84375        0.740741        0.27027        0        
C2        C        0.9062500000000001        0.740741        0.27027        0        
C2        C        0.9687500000000001        0.740741        0.27027        0        
C3        C        0.0        0.759259        0.27027        0        
C3        C        0.0625        0.759259        0.27027        0        
C3        C        0.125        0.759259        0.27027        0        
C3        C        0.1875        0.759259        0.27027        0        
C3        C        0.25        0.759259        0.27027        0        
C3        C        0.3125        0.759259        0.27027        0        
C3        C        0.375        0.759259        0.27027        0        
C3        C        0.4375        0.759259        0.27027        0        
C3        C        0.5        0.759259        0.27027        0        
C3        C        0.5625        0.759259        0.27027        0        
C3        C        0.625        0.759259        0.27027        0        
C3        C        0.6875        0.759259        0.27027        0        
C3        C        0.75        0.759259        0.27027        0        
C3        C        0.8125        0.759259        0.27027        0        
C3        C        0.875        0.759259        0.27027        0        
C3        C        0.9375        0.759259        0.27027        0        
C4        C        0.03125        0.703703        0.27027        0        
C4        C        0.09375        0.703703        0.27027        0        
C4        C        0.15625        0.703703        0.27027        0        
C4        C        0.21875        0.703703        0.27027        0        
C4        C        0.28125        0.703703        0.27027        0        
C4        C        0.34375        0.703703        0.27027        0        
C4        C        0.40625        0.703703        0.27027        0        
C4        C        0.46875        0.703703        0.27027        0        
C4        C        0.53125        0.703703        0.27027        0        
C4        C        0.59375        0.703703        0.27027        0        
C4        C        0.65625        0.703703        0.27027        0        
C4        C        0.71875        0.703703        0.27027        0        
C4        C        0.78125        0.703703        0.27027        0        
C4        C        0.84375        0.703703        0.27027        0        
C4        C        0.9062500000000001        0.703703        0.27027        0        
C4        C        0.9687500000000001        0.703703        0.27027        0        
C1        C        0.0        0.796297        0.27027        0        
C1        C        0.0625        0.796297        0.27027        0        
C1        C        0.125        0.796297        0.27027        0        
C1        C        0.1875        0.796297        0.27027        0        
C1        C        0.25        0.796297        0.27027        0        
C1        C        0.3125        0.796297        0.27027        0        
C1        C        0.375        0.796297        0.27027        0        
C1        C        0.4375        0.796297        0.27027        0        
C1        C        0.5        0.796297        0.27027        0        
C1        C        0.5625        0.796297        0.27027        0        
C1        C        0.625        0.796297        0.27027        0        
C1        C        0.6875        0.796297        0.27027        0        
C1        C        0.75        0.796297        0.27027        0        
C1        C        0.8125        0.796297        0.27027        0        
C1        C        0.875        0.796297        0.27027        0        
C1        C        0.9375        0.796297        0.27027        0        
C2        C        0.03125        0.851852        0.27027        0        
C2        C        0.09375        0.851852        0.27027        0        
C2        C        0.15625        0.851852        0.27027        0        
C2        C        0.21875        0.851852        0.27027        0        
C2        C        0.28125        0.851852        0.27027        0        
C2        C        0.34375        0.851852        0.27027        0        
C2        C        0.40625        0.851852        0.27027        0        
C2        C        0.46875        0.851852        0.27027        0        
C2        C        0.53125        0.851852        0.27027        0        
C2        C        0.59375        0.851852        0.27027        0        
C2        C        0.65625        0.851852        0.27027        0        
C2        C        0.71875        0.851852        0.27027        0        
C2        C        0.78125        0.851852        0.27027        0        
C2        C        0.84375        0.851852        0.27027        0        
C2        C        0.9062500000000001        0.851852        0.27027        0        
C2        C        0.9687500000000001        0.851852        0.27027        0        
C3        C        0.0        0.87037        0.27027        0        
C3        C        0.0625        0.87037        0.27027        0        
C3        C        0.125        0.87037        0.27027        0        
C3        C        0.1875        0.87037        0.27027        0        
C3        C        0.25        0.87037        0.27027        0        
C3        C        0.3125        0.87037        0.27027        0        
C3        C        0.375        0.87037        0.27027        0        
C3        C        0.4375        0.87037        0.27027        0        
C3        C        0.5        0.87037        0.27027        0        
C3        C        0.5625        0.87037        0.27027        0        
C3        C        0.625        0.87037        0.27027        0        
C3        C        0.6875        0.87037        0.27027        0        
C3        C        0.75        0.87037        0.27027        0        
C3        C        0.8125        0.87037        0.27027        0        
C3        C        0.875        0.87037        0.27027        0        
C3        C        0.9375        0.87037        0.27027        0        
C4        C        0.03125        0.814814        0.27027        0        
C4        C        0.09375        0.814814        0.27027        0        
C4        C        0.15625        0.814814        0.27027        0        
C4        C        0.21875        0.814814        0.27027        0        
C4        C        0.28125        0.814814        0.27027        0        
C4        C        0.34375        0.814814        0.27027        0        
C4        C        0.40625        0.814814        0.27027        0        
C4        C        0.46875        0.814814        0.27027        0        
C4        C        0.53125        0.814814        0.27027        0        
C4        C        0.59375        0.814814        0.27027        0        
C4        C        0.65625        0.814814        0.27027        0        
C4        C        0.71875        0.814814        0.27027        0        
C4        C        0.78125        0.814814        0.27027        0        
C4        C        0.84375        0.814814        0.27027        0        
C4        C        0.9062500000000001        0.814814        0.27027        0        
C4        C        0.9687500000000001        0.814814        0.27027        0        
C1        C        0.0        0.907408        0.27027        0        
C1        C        0.0625        0.907408        0.27027        0        
C1        C        0.125        0.907408        0.27027        0        
C1        C        0.1875        0.907408        0.27027        0        
C1        C        0.25        0.907408        0.27027        0        
C1        C        0.3125        0.907408        0.27027        0        
C1        C        0.375        0.907408        0.27027        0        
C1        C        0.4375        0.907408        0.27027        0        
C1        C        0.5        0.907408        0.27027        0        
C1        C        0.5625        0.907408        0.27027        0        
C1        C        0.625        0.907408        0.27027        0        
C1        C        0.6875        0.907408        0.27027        0        
C1        C        0.75        0.907408        0.27027        0        
C1        C        0.8125        0.907408        0.27027        0        
C1        C        0.875        0.907408        0.27027        0        
C1        C        0.9375        0.907408        0.27027        0        
C2        C        0.03125        0.962963        0.27027        0        
C2        C        0.09375        0.962963        0.27027        0        
C2        C        0.15625        0.962963        0.27027        0        
C2        C        0.21875        0.962963        0.27027        0        
C2        C        0.28125        0.962963        0.27027        0        
C2        C        0.34375        0.962963        0.27027        0        
C2        C        0.40625        0.962963        0.27027        0        
C2        C        0.46875        0.962963        0.27027        0        
C2        C        0.53125        0.962963        0.27027        0        
C2        C        0.59375        0.962963        0.27027        0        
C2        C        0.65625        0.962963        0.27027        0        
C2        C        0.71875        0.962963        0.27027        0        
C2        C        0.78125        0.962963        0.27027        0        
C2        C        0.84375        0.962963        0.27027        0        
C2        C        0.9062500000000001        0.962963        0.27027        0        
C2        C        0.9687500000000001        0.962963        0.27027        0        
C3        C        0.0        0.9814809999999999        0.27027        0        
C3        C        0.0625        0.9814809999999999        0.27027        0        
C3        C        0.125        0.9814809999999999        0.27027        0        
C3        C        0.1875        0.9814809999999999        0.27027        0        
C3        C        0.25        0.9814809999999999        0.27027        0        
C3        C        0.3125        0.9814809999999999        0.27027        0        
C3        C        0.375        0.9814809999999999        0.27027        0        
C3        C        0.4375        0.9814809999999999        0.27027        0        
C3        C        0.5        0.9814809999999999        0.27027        0        
C3        C        0.5625        0.9814809999999999        0.27027        0        
C3        C        0.625        0.9814809999999999        0.27027        0        
C3        C        0.6875        0.9814809999999999        0.27027        0        
C3        C        0.75        0.9814809999999999        0.27027        0        
C3        C        0.8125        0.9814809999999999        0.27027        0        
C3        C        0.875        0.9814809999999999        0.27027        0        
C3        C        0.9375        0.9814809999999999        0.27027        0        
C4        C        0.03125        0.925925        0.27027        0        
C4        C        0.09375        0.925925        0.27027        0        
C4        C        0.15625        0.925925        0.27027        0        
C4        C        0.21875        0.925925        0.27027        0        
C4        C        0.28125        0.925925        0.27027        0        
C4        C        0.34375        0.925925        0.27027        0        
C4        C        0.40625        0.925925        0.27027        0        
C4        C        0.46875        0.925925        0.27027        0        
C4        C        0.53125        0.925925        0.27027        0        
C4        C        0.59375        0.925925        0.27027        0        
C4        C        0.65625        0.925925        0.27027        0        
C4        C        0.71875        0.925925        0.27027        0        
C4        C        0.78125        0.925925        0.27027        0        
C4        C        0.84375        0.925925        0.27027        0        
C4        C        0.9062500000000001        0.925925        0.27027        0        
C4        C        0.9687500000000001        0.925925        0.27027        0        
C1        C        0.0        0.018519        0.345721        0        
C2        C        0.03125        0.074075        0.345721        0        
C3        C        0.0        0.092592        0.345721        0        
C4        C        0.03125        0.037037        0.345721        0        
C1        C        0.0        0.12963        0.345721        0        
C2        C        0.03125        0.185185        0.345721        0        
C3        C        0.0        0.203703        0.345721        0        
C4        C        0.03125        0.148148        0.345721        0        
C1        C        0.0        0.24074099999999998        0.345721        0        
C2        C        0.03125        0.296297        0.345721        0        
C3        C        0.0        0.314815        0.345721        0        
C4        C        0.03125        0.259259        0.345721        0        
C1        C        0.0        0.351852        0.345721        0        
C2        C        0.03125        0.407408        0.345721        0        
C3        C        0.0        0.425925        0.345721        0        
C4        C        0.03125        0.37037        0.345721        0        
C1        C        0.0        0.46296300000000007        0.345721        0        
C2        C        0.03125        0.518519        0.345721        0        
C3        C        0.0        0.537037        0.345721        0        
C4        C        0.03125        0.481481        0.345721        0        
C1        C        0.0        0.574075        0.345721        0        
C2        C        0.03125        0.62963        0.345721        0        
C3        C        0.0        0.648148        0.345721        0        
C4        C        0.03125        0.592592        0.345721        0        
C1        C        0.0625        0.018519        0.345721        0        
C2        C        0.09375        0.074075        0.345721        0        
C3        C        0.0625        0.092592        0.345721        0        
C4        C        0.09375        0.037037        0.345721        0        
C1        C        0.0625        0.12963        0.345721        0        
C2        C        0.09375        0.185185        0.345721        0        
C3        C        0.0625        0.203703        0.345721        0        
C4        C        0.09375        0.148148        0.345721        0        
C1        C        0.0625        0.24074099999999998        0.345721        0        
C2        C        0.09375        0.296297        0.345721        0        
C3        C        0.0625        0.314815        0.345721        0        
C4        C        0.09375        0.259259        0.345721        0        
C1        C        0.0625        0.351852        0.345721        0        
C2        C        0.09375        0.407408        0.345721        0        
C3        C        0.0625        0.425925        0.345721        0        
C4        C        0.09375        0.37037        0.345721        0        
C1        C        0.0625        0.46296300000000007        0.345721        0        
C2        C        0.09375        0.518519        0.345721        0        
C3        C        0.0625        0.537037        0.345721        0        
C4        C        0.09375        0.481481        0.345721        0        
C1        C        0.0625        0.574075        0.345721        0        
C2        C        0.09375        0.62963        0.345721        0        
C3        C        0.0625        0.648148        0.345721        0        
C4        C        0.09375        0.592592        0.345721        0        
C1        C        0.125        0.018519        0.345721        0        
C2        C        0.15625        0.074075        0.345721        0        
C3        C        0.125        0.092592        0.345721        0        
C4        C        0.15625        0.037037        0.345721        0        
C1        C        0.125        0.12963        0.345721        0        
C2        C        0.15625        0.185185        0.345721        0        
C3        C        0.125        0.203703        0.345721        0        
C4        C        0.15625        0.148148        0.345721        0        
C1        C        0.125        0.24074099999999998        0.345721        0        
C2        C        0.15625        0.296297        0.345721        0        
C3        C        0.125        0.314815        0.345721        0        
C4        C        0.15625        0.259259        0.345721        0        
C1        C        0.125        0.351852        0.345721        0        
C2        C        0.15625        0.407408        0.345721        0        
C3        C        0.125        0.425925        0.345721        0        
C4        C        0.15625        0.37037        0.345721        0        
C1        C        0.125        0.46296300000000007        0.345721        0        
C2        C        0.15625        0.518519        0.345721        0        
C3        C        0.125        0.537037        0.345721        0        
C4        C        0.15625        0.481481        0.345721        0        
C1        C        0.125        0.574075        0.345721        0        
C2        C        0.15625        0.62963        0.345721        0        
C3        C        0.125        0.648148        0.345721        0        
C4        C        0.15625        0.592592        0.345721        0        
C1        C        0.1875        0.018519        0.345721        0        
C2        C        0.21875        0.074075        0.345721        0        
C3        C        0.1875        0.092592        0.345721        0        
C4        C        0.21875        0.037037        0.345721        0        
C1        C        0.1875        0.12963        0.345721        0        
C2        C        0.21875        0.185185        0.345721        0        
C3        C        0.1875        0.203703        0.345721        0        
C4        C        0.21875        0.148148        0.345721        0        
C1        C        0.1875        0.24074099999999998        0.345721        0        
C2        C        0.21875        0.296297        0.345721        0        
C3        C        0.1875        0.314815        0.345721        0        
C4        C        0.21875        0.259259        0.345721        0        
C1        C        0.1875        0.351852        0.345721        0        
C2        C        0.21875        0.407408        0.345721        0        
C3        C        0.1875        0.425925        0.345721        0        
C4        C        0.21875        0.37037        0.345721        0        
C1        C        0.1875        0.46296300000000007        0.345721        0        
C2        C        0.21875        0.518519        0.345721        0        
C3        C        0.1875        0.537037        0.345721        0        
C4        C        0.21875        0.481481        0.345721        0        
C1        C        0.1875        0.574075        0.345721        0        
C2        C        0.21875        0.62963        0.345721        0        
C3        C        0.1875        0.648148        0.345721        0        
C4        C        0.21875        0.592592        0.345721        0        
C1        C        0.25        0.018519        0.345721        0        
C2        C        0.28125        0.074075        0.345721        0        
C3        C        0.25        0.092592        0.345721        0        
C4        C        0.28125        0.037037        0.345721        0        
C1        C        0.25        0.12963        0.345721        0        
C2        C        0.28125        0.185185        0.345721        0        
C3        C        0.25        0.203703        0.345721        0        
C4        C        0.28125        0.148148        0.345721        0        
C1        C        0.25        0.24074099999999998        0.345721        0        
C2        C        0.28125        0.296297        0.345721        0        
C3        C        0.25        0.314815        0.345721        0        
C4        C        0.28125        0.259259        0.345721        0        
C1        C        0.25        0.351852        0.345721        0        
C2        C        0.28125        0.407408        0.345721        0        
C3        C        0.25        0.425925        0.345721        0        
C4        C        0.28125        0.37037        0.345721        0        
C1        C        0.25        0.46296300000000007        0.345721        0        
C2        C        0.28125        0.518519        0.345721        0        
C3        C        0.25        0.537037        0.345721        0        
C4        C        0.28125        0.481481        0.345721        0        
C1        C        0.25        0.574075        0.345721        0        
C2        C        0.28125        0.62963        0.345721        0        
C3        C        0.25        0.648148        0.345721        0        
C4        C        0.28125        0.592592        0.345721        0        
C1        C        0.3125        0.018519        0.345721        0        
C2        C        0.34375        0.074075        0.345721        0        
C3        C        0.3125        0.092592        0.345721        0        
C4        C        0.34375        0.037037        0.345721        0        
C1        C        0.3125        0.12963        0.345721        0        
C2        C        0.34375        0.185185        0.345721        0        
C3        C        0.3125        0.203703        0.345721        0        
C4        C        0.34375        0.148148        0.345721        0        
C1        C        0.3125        0.24074099999999998        0.345721        0        
C2        C        0.34375        0.296297        0.345721        0        
C3        C        0.3125        0.314815        0.345721        0        
C4        C        0.34375        0.259259        0.345721        0        
C1        C        0.3125        0.351852        0.345721        0        
C2        C        0.34375        0.407408        0.345721        0        
C3        C        0.3125        0.425925        0.345721        0        
C4        C        0.34375        0.37037        0.345721        0        
C1        C        0.3125        0.46296300000000007        0.345721        0        
C2        C        0.34375        0.518519        0.345721        0        
C3        C        0.3125        0.537037        0.345721        0        
C4        C        0.34375        0.481481        0.345721        0        
C1        C        0.3125        0.574075        0.345721        0        
C2        C        0.34375        0.62963        0.345721        0        
C3        C        0.3125        0.648148        0.345721        0        
C4        C        0.34375        0.592592        0.345721        0        
C1        C        0.375        0.018519        0.345721        0        
C2        C        0.40625        0.074075        0.345721        0        
C3        C        0.375        0.092592        0.345721        0        
C4        C        0.40625        0.037037        0.345721        0        
C1        C        0.375        0.12963        0.345721        0        
C2        C        0.40625        0.185185        0.345721        0        
C3        C        0.375        0.203703        0.345721        0        
C4        C        0.40625        0.148148        0.345721        0        
C1        C        0.375        0.24074099999999998        0.345721        0        
C2        C        0.40625        0.296297        0.345721        0        
C3        C        0.375        0.314815        0.345721        0        
C4        C        0.40625        0.259259        0.345721        0        
C1        C        0.375        0.351852        0.345721        0        
C2        C        0.40625        0.407408        0.345721        0        
C3        C        0.375        0.425925        0.345721        0        
C4        C        0.40625        0.37037        0.345721        0        
C1        C        0.375        0.46296300000000007        0.345721        0        
C2        C        0.40625        0.518519        0.345721        0        
C3        C        0.375        0.537037        0.345721        0        
C4        C        0.40625        0.481481        0.345721        0        
C1        C        0.375        0.574075        0.345721        0        
C2        C        0.40625        0.62963        0.345721        0        
C3        C        0.375        0.648148        0.345721        0        
C4        C        0.40625        0.592592        0.345721        0        
C1        C        0.4375        0.018519        0.345721        0        
C2        C        0.46875        0.074075        0.345721        0        
C3        C        0.4375        0.092592        0.345721        0        
C4        C        0.46875        0.037037        0.345721        0        
C1        C        0.4375        0.12963        0.345721        0        
C2        C        0.46875        0.185185        0.345721        0        
C3        C        0.4375        0.203703        0.345721        0        
C4        C        0.46875        0.148148        0.345721        0        
C1        C        0.4375        0.24074099999999998        0.345721        0        
C2        C        0.46875        0.296297        0.345721        0        
C3        C        0.4375        0.314815        0.345721        0        
C4        C        0.46875        0.259259        0.345721        0        
C1        C        0.4375        0.351852        0.345721        0        
C2        C        0.46875        0.407408        0.345721        0        
C3        C        0.4375        0.425925        0.345721        0        
C4        C        0.46875        0.37037        0.345721        0        
C1        C        0.4375        0.46296300000000007        0.345721        0        
C2        C        0.46875        0.518519        0.345721        0        
C3        C        0.4375        0.537037        0.345721        0        
C4        C        0.46875        0.481481        0.345721        0        
C1        C        0.4375        0.574075        0.345721        0        
C2        C        0.46875        0.62963        0.345721        0        
C3        C        0.4375        0.648148        0.345721        0        
C4        C        0.46875        0.592592        0.345721        0        
C1        C        0.5        0.018519        0.345721        0        
C2        C        0.53125        0.074075        0.345721        0        
C3        C        0.5        0.092592        0.345721        0        
C4        C        0.53125        0.037037        0.345721        0        
C1        C        0.5        0.12963        0.345721        0        
C2        C        0.53125        0.185185        0.345721        0        
C3        C        0.5        0.203703        0.345721        0        
C4        C        0.53125        0.148148        0.345721        0        
C1        C        0.5        0.24074099999999998        0.345721        0        
C2        C        0.53125        0.296297        0.345721        0        
C3        C        0.5        0.314815        0.345721        0        
C4        C        0.53125        0.259259        0.345721        0        
C1        C        0.5        0.351852        0.345721        0        
C2        C        0.53125        0.407408        0.345721        0        
C3        C        0.5        0.425925        0.345721        0        
C4        C        0.53125        0.37037        0.345721        0        
C1        C        0.5        0.46296300000000007        0.345721        0        
C2        C        0.53125        0.518519        0.345721        0        
C3        C        0.5        0.537037        0.345721        0        
C4        C        0.53125        0.481481        0.345721        0        
C1        C        0.5        0.574075        0.345721        0        
C2        C        0.53125        0.62963        0.345721        0        
C3        C        0.5        0.648148        0.345721        0        
C4        C        0.53125        0.592592        0.345721        0        
C1        C        0.5625        0.018519        0.345721        0        
C2        C        0.59375        0.074075        0.345721        0        
C3        C        0.5625        0.092592        0.345721        0        
C4        C        0.59375        0.037037        0.345721        0        
C1        C        0.5625        0.12963        0.345721        0        
C2        C        0.59375        0.185185        0.345721        0        
C3        C        0.5625        0.203703        0.345721        0        
C4        C        0.59375        0.148148        0.345721        0        
C1        C        0.5625        0.24074099999999998        0.345721        0        
C2        C        0.59375        0.296297        0.345721        0        
C3        C        0.5625        0.314815        0.345721        0        
C4        C        0.59375        0.259259        0.345721        0        
C1        C        0.5625        0.351852        0.345721        0        
C2        C        0.59375        0.407408        0.345721        0        
C3        C        0.5625        0.425925        0.345721        0        
C4        C        0.59375        0.37037        0.345721        0        
C1        C        0.5625        0.46296300000000007        0.345721        0        
C2        C        0.59375        0.518519        0.345721        0        
C3        C        0.5625        0.537037        0.345721        0        
C4        C        0.59375        0.481481        0.345721        0        
C1        C        0.5625        0.574075        0.345721        0        
C2        C        0.59375        0.62963        0.345721        0        
C3        C        0.5625        0.648148        0.345721        0        
C4        C        0.59375        0.592592        0.345721        0        
C1        C        0.625        0.018519        0.345721        0        
C2        C        0.65625        0.074075        0.345721        0        
C3        C        0.625        0.092592        0.345721        0        
C4        C        0.65625        0.037037        0.345721        0        
C1        C        0.625        0.12963        0.345721        0        
C2        C        0.65625        0.185185        0.345721        0        
C3        C        0.625        0.203703        0.345721        0        
C4        C        0.65625        0.148148        0.345721        0        
C1        C        0.625        0.24074099999999998        0.345721        0        
C2        C        0.65625        0.296297        0.345721        0        
C3        C        0.625        0.314815        0.345721        0        
C4        C        0.65625        0.259259        0.345721        0        
C1        C        0.625        0.351852        0.345721        0        
C2        C        0.65625        0.407408        0.345721        0        
C3        C        0.625        0.425925        0.345721        0        
C4        C        0.65625        0.37037        0.345721        0        
C1        C        0.625        0.46296300000000007        0.345721        0        
C2        C        0.65625        0.518519        0.345721        0        
C3        C        0.625        0.537037        0.345721        0        
C4        C        0.65625        0.481481        0.345721        0        
C1        C        0.625        0.574075        0.345721        0        
C2        C        0.65625        0.62963        0.345721        0        
C3        C        0.625        0.648148        0.345721        0        
C4        C        0.65625        0.592592        0.345721        0        
C1        C        0.6875        0.018519        0.345721        0        
C2        C        0.71875        0.074075        0.345721        0        
C3        C        0.6875        0.092592        0.345721        0        
C4        C        0.71875        0.037037        0.345721        0        
C1        C        0.6875        0.12963        0.345721        0        
C2        C        0.71875        0.185185        0.345721        0        
C3        C        0.6875        0.203703        0.345721        0        
C4        C        0.71875        0.148148        0.345721        0        
C1        C        0.6875        0.24074099999999998        0.345721        0        
C2        C        0.71875        0.296297        0.345721        0        
C3        C        0.6875        0.314815        0.345721        0        
C4        C        0.71875        0.259259        0.345721        0        
C1        C        0.6875        0.351852        0.345721        0        
C2        C        0.71875        0.407408        0.345721        0        
C3        C        0.6875        0.425925        0.345721        0        
C4        C        0.71875        0.37037        0.345721        0        
C1        C        0.6875        0.46296300000000007        0.345721        0        
C2        C        0.71875        0.518519        0.345721        0        
C3        C        0.6875        0.537037        0.345721        0        
C4        C        0.71875        0.481481        0.345721        0        
C1        C        0.6875        0.574075        0.345721        0        
C2        C        0.71875        0.62963        0.345721        0        
C3        C        0.6875        0.648148        0.345721        0        
C4        C        0.71875        0.592592        0.345721        0        
C1        C        0.75        0.018519        0.345721        0        
C2        C        0.78125        0.074075        0.345721        0        
C3        C        0.75        0.092592        0.345721        0        
C4        C        0.78125        0.037037        0.345721        0        
C1        C        0.75        0.12963        0.345721        0        
C2        C        0.78125        0.185185        0.345721        0        
C3        C        0.75        0.203703        0.345721        0        
C4        C        0.78125        0.148148        0.345721        0        
C1        C        0.75        0.24074099999999998        0.345721        0        
C2        C        0.78125        0.296297        0.345721        0        
C3        C        0.75        0.314815        0.345721        0        
C4        C        0.78125        0.259259        0.345721        0        
C1        C        0.75        0.351852        0.345721        0        
C2        C        0.78125        0.407408        0.345721        0        
C3        C        0.75        0.425925        0.345721        0        
C4        C        0.78125        0.37037        0.345721        0        
C1        C        0.75        0.46296300000000007        0.345721        0        
C2        C        0.78125        0.518519        0.345721        0        
C3        C        0.75        0.537037        0.345721        0        
C4        C        0.78125        0.481481        0.345721        0        
C1        C        0.75        0.574075        0.345721        0        
C2        C        0.78125        0.62963        0.345721        0        
C3        C        0.75        0.648148        0.345721        0        
C4        C        0.78125        0.592592        0.345721        0        
C1        C        0.8125        0.018519        0.345721        0        
C2        C        0.84375        0.074075        0.345721        0        
C3        C        0.8125        0.092592        0.345721        0        
C4        C        0.84375        0.037037        0.345721        0        
C1        C        0.8125        0.12963        0.345721        0        
C2        C        0.84375        0.185185        0.345721        0        
C3        C        0.8125        0.203703        0.345721        0        
C4        C        0.84375        0.148148        0.345721        0        
C1        C        0.8125        0.24074099999999998        0.345721        0        
C2        C        0.84375        0.296297        0.345721        0        
C3        C        0.8125        0.314815        0.345721        0        
C4        C        0.84375        0.259259        0.345721        0        
C1        C        0.8125        0.351852        0.345721        0        
C2        C        0.84375        0.407408        0.345721        0        
C3        C        0.8125        0.425925        0.345721        0        
C4        C        0.84375        0.37037        0.345721        0        
C1        C        0.8125        0.46296300000000007        0.345721        0        
C2        C        0.84375        0.518519        0.345721        0        
C3        C        0.8125        0.537037        0.345721        0        
C4        C        0.84375        0.481481        0.345721        0        
C1        C        0.8125        0.574075        0.345721        0        
C2        C        0.84375        0.62963        0.345721        0        
C3        C        0.8125        0.648148        0.345721        0        
C4        C        0.84375        0.592592        0.345721        0        
C1        C        0.875        0.018519        0.345721        0        
C2        C        0.9062500000000001        0.074075        0.345721        0        
C3        C        0.875        0.092592        0.345721        0        
C4        C        0.9062500000000001        0.037037        0.345721        0        
C1        C        0.875        0.12963        0.345721        0        
C2        C        0.9062500000000001        0.185185        0.345721        0        
C3        C        0.875        0.203703        0.345721        0        
C4        C        0.9062500000000001        0.148148        0.345721        0        
C1        C        0.875        0.24074099999999998        0.345721        0        
C2        C        0.9062500000000001        0.296297        0.345721        0        
C3        C        0.875        0.314815        0.345721        0        
C4        C        0.9062500000000001        0.259259        0.345721        0        
C1        C        0.875        0.351852        0.345721        0        
C2        C        0.9062500000000001        0.407408        0.345721        0        
C3        C        0.875        0.425925        0.345721        0        
C4        C        0.9062500000000001        0.37037        0.345721        0        
C1        C        0.875        0.46296300000000007        0.345721        0        
C2        C        0.9062500000000001        0.518519        0.345721        0        
C3        C        0.875        0.537037        0.345721        0        
C4        C        0.9062500000000001        0.481481        0.345721        0        
C1        C        0.875        0.574075        0.345721        0        
C2        C        0.9062500000000001        0.62963        0.345721        0        
C3        C        0.875        0.648148        0.345721        0        
C4        C        0.9062500000000001        0.592592        0.345721        0        
C1        C        0.9375        0.018519        0.345721        0        
C2        C        0.9687500000000001        0.074075        0.345721        0        
C3        C        0.9375        0.092592        0.345721        0        
C4        C        0.9687500000000001        0.037037        0.345721        0        
C1        C        0.9375        0.12963        0.345721        0        
C2        C        0.9687500000000001        0.185185        0.345721        0        
C3        C        0.9375        0.203703        0.345721        0        
C4        C        0.9687500000000001        0.148148        0.345721        0        
C1        C        0.9375        0.24074099999999998        0.345721        0        
C2        C        0.9687500000000001        0.296297        0.345721        0        
C3        C        0.9375        0.314815        0.345721        0        
C4        C        0.9687500000000001        0.259259        0.345721        0        
C1        C        0.9375        0.351852        0.345721        0        
C2        C        0.9687500000000001        0.407408        0.345721        0        
C3        C        0.9375        0.425925        0.345721        0        
C4        C        0.9687500000000001        0.37037        0.345721        0        
C1        C        0.9375        0.46296300000000007        0.345721        0        
C2        C        0.9687500000000001        0.518519        0.345721        0        
C3        C        0.9375        0.537037        0.345721        0        
C4        C        0.9687500000000001        0.481481        0.345721        0        
C1        C        0.9375        0.574075        0.345721        0        
C2        C        0.9687500000000001        0.62963        0.345721        0        
C3        C        0.9375        0.648148        0.345721        0        
C4        C        0.9687500000000001        0.592592        0.345721        0        
C1        C        0.0        0.685186        0.345721        0        
C1        C        0.0625        0.685186        0.345721        0        
C1        C        0.125        0.685186        0.345721        0        
C1        C        0.1875        0.685186        0.345721        0        
C1        C        0.25        0.685186        0.345721        0        
C1        C        0.3125        0.685186        0.345721        0        
C1        C        0.375        0.685186        0.345721        0        
C1        C        0.4375        0.685186        0.345721        0        
C1        C        0.5        0.685186        0.345721        0        
C1        C        0.5625        0.685186        0.345721        0        
C1        C        0.625        0.685186        0.345721        0        
C1        C        0.6875        0.685186        0.345721        0        
C1        C        0.75        0.685186        0.345721        0        
C1        C        0.8125        0.685186        0.345721        0        
C1        C        0.875        0.685186        0.345721        0        
C1        C        0.9375        0.685186        0.345721        0        
C2        C        0.03125        0.740741        0.345721        0        
C2        C        0.09375        0.740741        0.345721        0        
C2        C        0.15625        0.740741        0.345721        0        
C2        C        0.21875        0.740741        0.345721        0        
C2        C        0.28125        0.740741        0.345721        0        
C2        C        0.34375        0.740741        0.345721        0        
C2        C        0.40625        0.740741        0.345721        0        
C2        C        0.46875        0.740741        0.345721        0        
C2        C        0.53125        0.740741        0.345721        0        
C2        C        0.59375        0.740741        0.345721        0        
C2        C        0.65625        0.740741        0.345721        0        
C2        C        0.71875        0.740741        0.345721        0        
C2        C        0.78125        0.740741        0.345721        0        
C2        C        0.84375        0.740741        0.345721        0        
C2        C        0.9062500000000001        0.740741        0.345721        0        
C2        C        0.9687500000000001        0.740741        0.345721        0        
C3        C        0.0        0.759259        0.345721        0        
C3        C        0.0625        0.759259        0.345721        0        
C3        C        0.125        0.759259        0.345721        0        
C3        C        0.1875        0.759259        0.345721        0        
C3        C        0.25        0.759259        0.345721        0        
C3        C        0.3125        0.759259        0.345721        0        
C3        C        0.375        0.759259        0.345721        0        
C3        C        0.4375        0.759259        0.345721        0        
C3        C        0.5        0.759259        0.345721        0        
C3        C        0.5625        0.759259        0.345721        0        
C3        C        0.625        0.759259        0.345721        0        
C3        C        0.6875        0.759259        0.345721        0        
C3        C        0.75        0.759259        0.345721        0        
C3        C        0.8125        0.759259        0.345721        0        
C3        C        0.875        0.759259        0.345721        0        
C3        C        0.9375        0.759259        0.345721        0        
C4        C        0.03125        0.703703        0.345721        0        
C4        C        0.09375        0.703703        0.345721        0        
C4        C        0.15625        0.703703        0.345721        0        
C4        C        0.21875        0.703703        0.345721        0        
C4        C        0.28125        0.703703        0.345721        0        
C4        C        0.34375        0.703703        0.345721        0        
C4        C        0.40625        0.703703        0.345721        0        
C4        C        0.46875        0.703703        0.345721        0        
C4        C        0.53125        0.703703        0.345721        0        
C4        C        0.59375        0.703703        0.345721        0        
C4        C        0.65625        0.703703        0.345721        0        
C4        C        0.71875        0.703703        0.345721        0        
C4        C        0.78125        0.703703        0.345721        0        
C4        C        0.84375        0.703703        0.345721        0        
C4        C        0.9062500000000001        0.703703        0.345721        0        
C4        C        0.9687500000000001        0.703703        0.345721        0        
C1        C        0.0        0.796297        0.345721        0        
C1        C        0.0625        0.796297        0.345721        0        
C1        C        0.125        0.796297        0.345721        0        
C1        C        0.1875        0.796297        0.345721        0        
C1        C        0.25        0.796297        0.345721        0        
C1        C        0.3125        0.796297        0.345721        0        
C1        C        0.375        0.796297        0.345721        0        
C1        C        0.4375        0.796297        0.345721        0        
C1        C        0.5        0.796297        0.345721        0        
C1        C        0.5625        0.796297        0.345721        0        
C1        C        0.625        0.796297        0.345721        0        
C1        C        0.6875        0.796297        0.345721        0        
C1        C        0.75        0.796297        0.345721        0        
C1        C        0.8125        0.796297        0.345721        0        
C1        C        0.875        0.796297        0.345721        0        
C1        C        0.9375        0.796297        0.345721        0        
C2        C        0.03125        0.851852        0.345721        0        
C2        C        0.09375        0.851852        0.345721        0        
C2        C        0.15625        0.851852        0.345721        0        
C2        C        0.21875        0.851852        0.345721        0        
C2        C        0.28125        0.851852        0.345721        0        
C2        C        0.34375        0.851852        0.345721        0        
C2        C        0.40625        0.851852        0.345721        0        
C2        C        0.46875        0.851852        0.345721        0        
C2        C        0.53125        0.851852        0.345721        0        
C2        C        0.59375        0.851852        0.345721        0        
C2        C        0.65625        0.851852        0.345721        0        
C2        C        0.71875        0.851852        0.345721        0        
C2        C        0.78125        0.851852        0.345721        0        
C2        C        0.84375        0.851852        0.345721        0        
C2        C        0.9062500000000001        0.851852        0.345721        0        
C2        C        0.9687500000000001        0.851852        0.345721        0        
C3        C        0.0        0.87037        0.345721        0        
C3        C        0.0625        0.87037        0.345721        0        
C3        C        0.125        0.87037        0.345721        0        
C3        C        0.1875        0.87037        0.345721        0        
C3        C        0.25        0.87037        0.345721        0        
C3        C        0.3125        0.87037        0.345721        0        
C3        C        0.375        0.87037        0.345721        0        
C3        C        0.4375        0.87037        0.345721        0        
C3        C        0.5        0.87037        0.345721        0        
C3        C        0.5625        0.87037        0.345721        0        
C3        C        0.625        0.87037        0.345721        0        
C3        C        0.6875        0.87037        0.345721        0        
C3        C        0.75        0.87037        0.345721        0        
C3        C        0.8125        0.87037        0.345721        0        
C3        C        0.875        0.87037        0.345721        0        
C3        C        0.9375        0.87037        0.345721        0        
C4        C        0.03125        0.814814        0.345721        0        
C4        C        0.09375        0.814814        0.345721        0        
C4        C        0.15625        0.814814        0.345721        0        
C4        C        0.21875        0.814814        0.345721        0        
C4        C        0.28125        0.814814        0.345721        0        
C4        C        0.34375        0.814814        0.345721        0        
C4        C        0.40625        0.814814        0.345721        0        
C4        C        0.46875        0.814814        0.345721        0        
C4        C        0.53125        0.814814        0.345721        0        
C4        C        0.59375        0.814814        0.345721        0        
C4        C        0.65625        0.814814        0.345721        0        
C4        C        0.71875        0.814814        0.345721        0        
C4        C        0.78125        0.814814        0.345721        0        
C4        C        0.84375        0.814814        0.345721        0        
C4        C        0.9062500000000001        0.814814        0.345721        0        
C4        C        0.9687500000000001        0.814814        0.345721        0        
C1        C        0.0        0.907408        0.345721        0        
C1        C        0.0625        0.907408        0.345721        0        
C1        C        0.125        0.907408        0.345721        0        
C1        C        0.1875        0.907408        0.345721        0        
C1        C        0.25        0.907408        0.345721        0        
C1        C        0.3125        0.907408        0.345721        0        
C1        C        0.375        0.907408        0.345721        0        
C1        C        0.4375        0.907408        0.345721        0        
C1        C        0.5        0.907408        0.345721        0        
C1        C        0.5625        0.907408        0.345721        0        
C1        C        0.625        0.907408        0.345721        0        
C1        C        0.6875        0.907408        0.345721        0        
C1        C        0.75        0.907408        0.345721        0        
C1        C        0.8125        0.907408        0.345721        0        
C1        C        0.875        0.907408        0.345721        0        
C1        C        0.9375        0.907408        0.345721        0        
C2        C        0.03125        0.962963        0.345721        0        
C2        C        0.09375        0.962963        0.345721        0        
C2        C        0.15625        0.962963        0.345721        0        
C2        C        0.21875        0.962963        0.345721        0        
C2        C        0.28125        0.962963        0.345721        0        
C2        C        0.34375        0.962963        0.345721        0        
C2        C        0.40625        0.962963        0.345721        0        
C2        C        0.46875        0.962963        0.345721        0        
C2        C        0.53125        0.962963        0.345721        0        
C2        C        0.59375        0.962963        0.345721        0        
C2        C        0.65625        0.962963        0.345721        0        
C2        C        0.71875        0.962963        0.345721        0        
C2        C        0.78125        0.962963        0.345721        0        
C2        C        0.84375        0.962963        0.345721        0        
C2        C        0.9062500000000001        0.962963        0.345721        0        
C2        C        0.9687500000000001        0.962963        0.345721        0        
C3        C        0.0        0.9814809999999999        0.345721        0        
C3        C        0.0625        0.9814809999999999        0.345721        0        
C3        C        0.125        0.9814809999999999        0.345721        0        
C3        C        0.1875        0.9814809999999999        0.345721        0        
C3        C        0.25        0.9814809999999999        0.345721        0        
C3        C        0.3125        0.9814809999999999        0.345721        0        
C3        C        0.375        0.9814809999999999        0.345721        0        
C3        C        0.4375        0.9814809999999999        0.345721        0        
C3        C        0.5        0.9814809999999999        0.345721        0        
C3        C        0.5625        0.9814809999999999        0.345721        0        
C3        C        0.625        0.9814809999999999        0.345721        0        
C3        C        0.6875        0.9814809999999999        0.345721        0        
C3        C        0.75        0.9814809999999999        0.345721        0        
C3        C        0.8125        0.9814809999999999        0.345721        0        
C3        C        0.875        0.9814809999999999        0.345721        0        
C3        C        0.9375        0.9814809999999999        0.345721        0        
C4        C        0.03125        0.925925        0.345721        0        
C4        C        0.09375        0.925925        0.345721        0        
C4        C        0.15625        0.925925        0.345721        0        
C4        C        0.21875        0.925925        0.345721        0        
C4        C        0.28125        0.925925        0.345721        0        
C4        C        0.34375        0.925925        0.345721        0        
C4        C        0.40625        0.925925        0.345721        0        
C4        C        0.46875        0.925925        0.345721        0        
C4        C        0.53125        0.925925        0.345721        0        
C4        C        0.59375        0.925925        0.345721        0        
C4        C        0.65625        0.925925        0.345721        0        
C4        C        0.71875        0.925925        0.345721        0        
C4        C        0.78125        0.925925        0.345721        0        
C4        C        0.84375        0.925925        0.345721        0        
C4        C        0.9062500000000001        0.925925        0.345721        0        
C4        C        0.9687500000000001        0.925925        0.345721        0        
C_FG        C        0.0        0.018519        0.421171        0.2        
C2        C        0.03125        0.074075        0.421171        0        
C3        C        0.0        0.092592        0.421171        0        
C4        C        0.03125        0.037037        0.421171        0        
C_FG        C        0.0        0.12963        0.421171        0.2        
C2        C        0.03125        0.185185        0.421171        0        
C3        C        0.0        0.203703        0.421171        0        
C4        C        0.03125        0.148148        0.421171        0        
C_FG        C        0.0        0.24074099999999998        0.421171        0.2        
C2        C        0.03125        0.296297        0.421171        0        
C3        C        0.0        0.314815        0.421171        0        
C4        C        0.03125        0.259259        0.421171        0        
C_FG        C        0.0        0.351852        0.421171        0.2        
C2        C        0.03125        0.407408        0.421171        0        
C3        C        0.0        0.425925        0.421171        0        
C4        C        0.03125        0.37037        0.421171        0        
C_FG        C        0.0        0.46296300000000007        0.421171        0.2        
C2        C        0.03125        0.518519        0.421171        0        
C3        C        0.0        0.537037        0.421171        0        
C4        C        0.03125        0.481481        0.421171        0        
C_FG        C        0.0        0.574075        0.421171        0.2        
C2        C        0.03125        0.62963        0.421171        0        
C3        C        0.0        0.648148        0.421171        0        
C4        C        0.03125        0.592592        0.421171        0        
C1        C        0.0625        0.018519        0.421171        0        
C2        C        0.09375        0.074075        0.421171        0        
C3        C        0.0625        0.092592        0.421171        0        
C4        C        0.09375        0.037037        0.421171        0        
C1        C        0.0625        0.12963        0.421171        0        
C2        C        0.09375        0.185185        0.421171        0        
C3        C        0.0625        0.203703        0.421171        0        
C4        C        0.09375        0.148148        0.421171        0        
C1        C        0.0625        0.24074099999999998        0.421171        0        
C2        C        0.09375        0.296297        0.421171        0        
C3        C        0.0625        0.314815        0.421171        0        
C4        C        0.09375        0.259259        0.421171        0        
C1        C        0.0625        0.351852        0.421171        0        
C2        C        0.09375        0.407408        0.421171        0        
C3        C        0.0625        0.425925        0.421171        0        
C4        C        0.09375        0.37037        0.421171        0        
C1        C        0.0625        0.46296300000000007        0.421171        0        
C2        C        0.09375        0.518519        0.421171        0        
C3        C        0.0625        0.537037        0.421171        0        
C4        C        0.09375        0.481481        0.421171        0        
C1        C        0.0625        0.574075        0.421171        0        
C2        C        0.09375        0.62963        0.421171        0        
C3        C        0.0625        0.648148        0.421171        0        
C4        C        0.09375        0.592592        0.421171        0        
C_FG        C        0.125        0.018519        0.421171        0.2        
C2        C        0.15625        0.074075        0.421171        0        
C3        C        0.125        0.092592        0.421171        0        
C4        C        0.15625        0.037037        0.421171        0        
C_FG        C        0.125        0.12963        0.421171        0.2        
C2        C        0.15625        0.185185        0.421171        0        
C3        C        0.125        0.203703        0.421171        0        
C4        C        0.15625        0.148148        0.421171        0        
C_FG        C        0.125        0.24074099999999998        0.421171        0.2        
C2        C        0.15625        0.296297        0.421171        0        
C3        C        0.125        0.314815        0.421171        0        
C4        C        0.15625        0.259259        0.421171        0        
C_FG        C        0.125        0.351852        0.421171        0.2        
C2        C        0.15625        0.407408        0.421171        0        
C3        C        0.125        0.425925        0.421171        0        
C4        C        0.15625        0.37037        0.421171        0        
C_FG        C        0.125        0.46296300000000007        0.421171        0.2        
C2        C        0.15625        0.518519        0.421171        0        
C3        C        0.125        0.537037        0.421171        0        
C4        C        0.15625        0.481481        0.421171        0        
C_FG        C        0.125        0.574075        0.421171        0.2        
C2        C        0.15625        0.62963        0.421171        0        
C3        C        0.125        0.648148        0.421171        0        
C4        C        0.15625        0.592592        0.421171        0        
C1        C        0.1875        0.018519        0.421171        0        
C2        C        0.21875        0.074075        0.421171        0        
C3        C        0.1875        0.092592        0.421171        0        
C4        C        0.21875        0.037037        0.421171        0        
C1        C        0.1875        0.12963        0.421171        0        
C2        C        0.21875        0.185185        0.421171        0        
C3        C        0.1875        0.203703        0.421171        0        
C4        C        0.21875        0.148148        0.421171        0        
C1        C        0.1875        0.24074099999999998        0.421171        0        
C2        C        0.21875        0.296297        0.421171        0        
C3        C        0.1875        0.314815        0.421171        0        
C4        C        0.21875        0.259259        0.421171        0        
C1        C        0.1875        0.351852        0.421171        0        
C2        C        0.21875        0.407408        0.421171        0        
C3        C        0.1875        0.425925        0.421171        0        
C4        C        0.21875        0.37037        0.421171        0        
C1        C        0.1875        0.46296300000000007        0.421171        0        
C2        C        0.21875        0.518519        0.421171        0        
C3        C        0.1875        0.537037        0.421171        0        
C4        C        0.21875        0.481481        0.421171        0        
C1        C        0.1875        0.574075        0.421171        0        
C2        C        0.21875        0.62963        0.421171        0        
C3        C        0.1875        0.648148        0.421171        0        
C4        C        0.21875        0.592592        0.421171        0        
C_FG        C        0.25        0.018519        0.421171        0.2        
C2        C        0.28125        0.074075        0.421171        0        
C3        C        0.25        0.092592        0.421171        0        
C4        C        0.28125        0.037037        0.421171        0        
C_FG        C        0.25        0.12963        0.421171        0.2        
C2        C        0.28125        0.185185        0.421171        0        
C3        C        0.25        0.203703        0.421171        0        
C4        C        0.28125        0.148148        0.421171        0        
C_FG        C        0.25        0.24074099999999998        0.421171        0.2        
C2        C        0.28125        0.296297        0.421171        0        
C3        C        0.25        0.314815        0.421171        0        
C4        C        0.28125        0.259259        0.421171        0        
C_FG        C        0.25        0.351852        0.421171        0.2        
C2        C        0.28125        0.407408        0.421171        0        
C3        C        0.25        0.425925        0.421171        0        
C4        C        0.28125        0.37037        0.421171        0        
C_FG        C        0.25        0.46296300000000007        0.421171        0.2        
C2        C        0.28125        0.518519        0.421171        0        
C3        C        0.25        0.537037        0.421171        0        
C4        C        0.28125        0.481481        0.421171        0        
C_FG        C        0.25        0.574075        0.421171        0.2        
C2        C        0.28125        0.62963        0.421171        0        
C3        C        0.25        0.648148        0.421171        0        
C4        C        0.28125        0.592592        0.421171        0        
C1        C        0.3125        0.018519        0.421171        0        
C2        C        0.34375        0.074075        0.421171        0        
C3        C        0.3125        0.092592        0.421171        0        
C4        C        0.34375        0.037037        0.421171        0        
C1        C        0.3125        0.12963        0.421171        0        
C2        C        0.34375        0.185185        0.421171        0        
C3        C        0.3125        0.203703        0.421171        0        
C4        C        0.34375        0.148148        0.421171        0        
C1        C        0.3125        0.24074099999999998        0.421171        0        
C2        C        0.34375        0.296297        0.421171        0        
C3        C        0.3125        0.314815        0.421171        0        
C4        C        0.34375        0.259259        0.421171        0        
C1        C        0.3125        0.351852        0.421171        0        
C2        C        0.34375        0.407408        0.421171        0        
C3        C        0.3125        0.425925        0.421171        0        
C4        C        0.34375        0.37037        0.421171        0        
C1        C        0.3125        0.46296300000000007        0.421171        0        
C2        C        0.34375        0.518519        0.421171        0        
C3        C        0.3125        0.537037        0.421171        0        
C4        C        0.34375        0.481481        0.421171        0        
C1        C        0.3125        0.574075        0.421171        0        
C2        C        0.34375        0.62963        0.421171        0        
C3        C        0.3125        0.648148        0.421171        0        
C4        C        0.34375        0.592592        0.421171        0        
C_FG        C        0.375        0.018519        0.421171        0.2        
C2        C        0.40625        0.074075        0.421171        0        
C3        C        0.375        0.092592        0.421171        0        
C4        C        0.40625        0.037037        0.421171        0        
C_FG        C        0.375        0.12963        0.421171        0.2        
C2        C        0.40625        0.185185        0.421171        0        
C3        C        0.375        0.203703        0.421171        0        
C4        C        0.40625        0.148148        0.421171        0        
C_FG        C        0.375        0.24074099999999998        0.421171        0.2        
C2        C        0.40625        0.296297        0.421171        0        
C3        C        0.375        0.314815        0.421171        0        
C4        C        0.40625        0.259259        0.421171        0        
C_FG        C        0.375        0.351852        0.421171        0.2        
C2        C        0.40625        0.407408        0.421171        0        
C3        C        0.375        0.425925        0.421171        0        
C4        C        0.40625        0.37037        0.421171        0        
C_FG        C        0.375        0.46296300000000007        0.421171        0.2        
C2        C        0.40625        0.518519        0.421171        0        
C3        C        0.375        0.537037        0.421171        0        
C4        C        0.40625        0.481481        0.421171        0        
C_FG        C        0.375        0.574075        0.421171        0.2        
C2        C        0.40625        0.62963        0.421171        0        
C3        C        0.375        0.648148        0.421171        0        
C4        C        0.40625        0.592592        0.421171        0        
C1        C        0.4375        0.018519        0.421171        0        
C2        C        0.46875        0.074075        0.421171        0        
C3        C        0.4375        0.092592        0.421171        0        
C4        C        0.46875        0.037037        0.421171        0        
C1        C        0.4375        0.12963        0.421171        0        
C2        C        0.46875        0.185185        0.421171        0        
C3        C        0.4375        0.203703        0.421171        0        
C4        C        0.46875        0.148148        0.421171        0        
C1        C        0.4375        0.24074099999999998        0.421171        0        
C2        C        0.46875        0.296297        0.421171        0        
C3        C        0.4375        0.314815        0.421171        0        
C4        C        0.46875        0.259259        0.421171        0        
C1        C        0.4375        0.351852        0.421171        0        
C2        C        0.46875        0.407408        0.421171        0        
C3        C        0.4375        0.425925        0.421171        0        
C4        C        0.46875        0.37037        0.421171        0        
C1        C        0.4375        0.46296300000000007        0.421171        0        
C2        C        0.46875        0.518519        0.421171        0        
C3        C        0.4375        0.537037        0.421171        0        
C4        C        0.46875        0.481481        0.421171        0        
C1        C        0.4375        0.574075        0.421171        0        
C2        C        0.46875        0.62963        0.421171        0        
C3        C        0.4375        0.648148        0.421171        0        
C4        C        0.46875        0.592592        0.421171        0        
C_FG        C        0.5        0.018519        0.421171        0.2        
C2        C        0.53125        0.074075        0.421171        0        
C3        C        0.5        0.092592        0.421171        0        
C4        C        0.53125        0.037037        0.421171        0        
C_FG        C        0.5        0.12963        0.421171        0.2        
C2        C        0.53125        0.185185        0.421171        0        
C3        C        0.5        0.203703        0.421171        0        
C4        C        0.53125        0.148148        0.421171        0        
C_FG        C        0.5        0.24074099999999998        0.421171        0.2        
C2        C        0.53125        0.296297        0.421171        0        
C3        C        0.5        0.314815        0.421171        0        
C4        C        0.53125        0.259259        0.421171        0        
C_FG        C        0.5        0.351852        0.421171        0.2        
C2        C        0.53125        0.407408        0.421171        0        
C3        C        0.5        0.425925        0.421171        0        
C4        C        0.53125        0.37037        0.421171        0        
C_FG        C        0.5        0.46296300000000007        0.421171        0.2        
C2        C        0.53125        0.518519        0.421171        0        
C3        C        0.5        0.537037        0.421171        0        
C4        C        0.53125        0.481481        0.421171        0        
C_FG        C        0.5        0.574075        0.421171        0.2        
C2        C        0.53125        0.62963        0.421171        0        
C3        C        0.5        0.648148        0.421171        0        
C4        C        0.53125        0.592592        0.421171        0        
C1        C        0.5625        0.018519        0.421171        0        
C2        C        0.59375        0.074075        0.421171        0        
C3        C        0.5625        0.092592        0.421171        0        
C4        C        0.59375        0.037037        0.421171        0        
C1        C        0.5625        0.12963        0.421171        0        
C2        C        0.59375        0.185185        0.421171        0        
C3        C        0.5625        0.203703        0.421171        0        
C4        C        0.59375        0.148148        0.421171        0        
C1        C        0.5625        0.24074099999999998        0.421171        0        
C2        C        0.59375        0.296297        0.421171        0        
C3        C        0.5625        0.314815        0.421171        0        
C4        C        0.59375        0.259259        0.421171        0        
C1        C        0.5625        0.351852        0.421171        0        
C2        C        0.59375        0.407408        0.421171        0        
C3        C        0.5625        0.425925        0.421171        0        
C4        C        0.59375        0.37037        0.421171        0        
C1        C        0.5625        0.46296300000000007        0.421171        0        
C2        C        0.59375        0.518519        0.421171        0        
C3        C        0.5625        0.537037        0.421171        0        
C4        C        0.59375        0.481481        0.421171        0        
C1        C        0.5625        0.574075        0.421171        0        
C2        C        0.59375        0.62963        0.421171        0        
C3        C        0.5625        0.648148        0.421171        0        
C4        C        0.59375        0.592592        0.421171        0        
C_FG        C        0.625        0.018519        0.421171        0.2        
C2        C        0.65625        0.074075        0.421171        0        
C3        C        0.625        0.092592        0.421171        0        
C4        C        0.65625        0.037037        0.421171        0        
C_FG        C        0.625        0.12963        0.421171        0.2        
C2        C        0.65625        0.185185        0.421171        0        
C3        C        0.625        0.203703        0.421171        0        
C4        C        0.65625        0.148148        0.421171        0        
C_FG        C        0.625        0.24074099999999998        0.421171        0.2        
C2        C        0.65625        0.296297        0.421171        0        
C3        C        0.625        0.314815        0.421171        0        
C4        C        0.65625        0.259259        0.421171        0        
C_FG        C        0.625        0.351852        0.421171        0.2        
C2        C        0.65625        0.407408        0.421171        0        
C3        C        0.625        0.425925        0.421171        0        
C4        C        0.65625        0.37037        0.421171        0        
C_FG        C        0.625        0.46296300000000007        0.421171        0.2        
C2        C        0.65625        0.518519        0.421171        0        
C3        C        0.625        0.537037        0.421171        0        
C4        C        0.65625        0.481481        0.421171        0        
C_FG        C        0.625        0.574075        0.421171        0.2        
C2        C        0.65625        0.62963        0.421171        0        
C3        C        0.625        0.648148        0.421171        0        
C4        C        0.65625        0.592592        0.421171        0        
C1        C        0.6875        0.018519        0.421171        0        
C2        C        0.71875        0.074075        0.421171        0        
C3        C        0.6875        0.092592        0.421171        0        
C4        C        0.71875        0.037037        0.421171        0        
C1        C        0.6875        0.12963        0.421171        0        
C2        C        0.71875        0.185185        0.421171        0        
C3        C        0.6875        0.203703        0.421171        0        
C4        C        0.71875        0.148148        0.421171        0        
C1        C        0.6875        0.24074099999999998        0.421171        0        
C2        C        0.71875        0.296297        0.421171        0        
C3        C        0.6875        0.314815        0.421171        0        
C4        C        0.71875        0.259259        0.421171        0        
C1        C        0.6875        0.351852        0.421171        0        
C2        C        0.71875        0.407408        0.421171        0        
C3        C        0.6875        0.425925        0.421171        0        
C4        C        0.71875        0.37037        0.421171        0        
C1        C        0.6875        0.46296300000000007        0.421171        0        
C2        C        0.71875        0.518519        0.421171        0        
C3        C        0.6875        0.537037        0.421171        0        
C4        C        0.71875        0.481481        0.421171        0        
C1        C        0.6875        0.574075        0.421171        0        
C2        C        0.71875        0.62963        0.421171        0        
C3        C        0.6875        0.648148        0.421171        0        
C4        C        0.71875        0.592592        0.421171        0        
C_FG        C        0.75        0.018519        0.421171        0.2        
C2        C        0.78125        0.074075        0.421171        0        
C3        C        0.75        0.092592        0.421171        0        
C4        C        0.78125        0.037037        0.421171        0        
C_FG        C        0.75        0.12963        0.421171        0.2        
C2        C        0.78125        0.185185        0.421171        0        
C3        C        0.75        0.203703        0.421171        0        
C4        C        0.78125        0.148148        0.421171        0        
C_FG        C        0.75        0.24074099999999998        0.421171        0.2        
C2        C        0.78125        0.296297        0.421171        0        
C3        C        0.75        0.314815        0.421171        0        
C4        C        0.78125        0.259259        0.421171        0        
C_FG        C        0.75        0.351852        0.421171        0.2        
C2        C        0.78125        0.407408        0.421171        0        
C3        C        0.75        0.425925        0.421171        0        
C4        C        0.78125        0.37037        0.421171        0        
C_FG        C        0.75        0.46296300000000007        0.421171        0.2        
C2        C        0.78125        0.518519        0.421171        0        
C3        C        0.75        0.537037        0.421171        0        
C4        C        0.78125        0.481481        0.421171        0        
C_FG        C        0.75        0.574075        0.421171        0.2        
C2        C        0.78125        0.62963        0.421171        0        
C3        C        0.75        0.648148        0.421171        0        
C4        C        0.78125        0.592592        0.421171        0        
C1        C        0.8125        0.018519        0.421171        0        
C2        C        0.84375        0.074075        0.421171        0        
C3        C        0.8125        0.092592        0.421171        0        
C4        C        0.84375        0.037037        0.421171        0        
C1        C        0.8125        0.12963        0.421171        0        
C2        C        0.84375        0.185185        0.421171        0        
C3        C        0.8125        0.203703        0.421171        0        
C4        C        0.84375        0.148148        0.421171        0        
C1        C        0.8125        0.24074099999999998        0.421171        0        
C2        C        0.84375        0.296297        0.421171        0        
C3        C        0.8125        0.314815        0.421171        0        
C4        C        0.84375        0.259259        0.421171        0        
C1        C        0.8125        0.351852        0.421171        0        
C2        C        0.84375        0.407408        0.421171        0        
C3        C        0.8125        0.425925        0.421171        0        
C4        C        0.84375        0.37037        0.421171        0        
C1        C        0.8125        0.46296300000000007        0.421171        0        
C2        C        0.84375        0.518519        0.421171        0        
C3        C        0.8125        0.537037        0.421171        0        
C4        C        0.84375        0.481481        0.421171        0        
C1        C        0.8125        0.574075        0.421171        0        
C2        C        0.84375        0.62963        0.421171        0        
C3        C        0.8125        0.648148        0.421171        0        
C4        C        0.84375        0.592592        0.421171        0        
C_FG        C        0.875        0.018519        0.421171        0.2        
C2        C        0.9062500000000001        0.074075        0.421171        0        
C3        C        0.875        0.092592        0.421171        0        
C4        C        0.9062500000000001        0.037037        0.421171        0        
C_FG        C        0.875        0.12963        0.421171        0.2        
C2        C        0.9062500000000001        0.185185        0.421171        0        
C3        C        0.875        0.203703        0.421171        0        
C4        C        0.9062500000000001        0.148148        0.421171        0        
C_FG        C        0.875        0.24074099999999998        0.421171        0.2        
C2        C        0.9062500000000001        0.296297        0.421171        0        
C3        C        0.875        0.314815        0.421171        0        
C4        C        0.9062500000000001        0.259259        0.421171        0        
C_FG        C        0.875        0.351852        0.421171        0.2        
C2        C        0.9062500000000001        0.407408        0.421171        0        
C3        C        0.875        0.425925        0.421171        0        
C4        C        0.9062500000000001        0.37037        0.421171        0        
C_FG        C        0.875        0.46296300000000007        0.421171        0.2        
C2        C        0.9062500000000001        0.518519        0.421171        0        
C3        C        0.875        0.537037        0.421171        0        
C4        C        0.9062500000000001        0.481481        0.421171        0        
C_FG        C        0.875        0.574075        0.421171        0.2        
C2        C        0.9062500000000001        0.62963        0.421171        0        
C3        C        0.875        0.648148        0.421171        0        
C4        C        0.9062500000000001        0.592592        0.421171        0        
C1        C        0.9375        0.018519        0.421171        0        
C2        C        0.9687500000000001        0.074075        0.421171        0        
C3        C        0.9375        0.092592        0.421171        0        
C4        C        0.9687500000000001        0.037037        0.421171        0        
C1        C        0.9375        0.12963        0.421171        0        
C2        C        0.9687500000000001        0.185185        0.421171        0        
C3        C        0.9375        0.203703        0.421171        0        
C4        C        0.9687500000000001        0.148148        0.421171        0        
C1        C        0.9375        0.24074099999999998        0.421171        0        
C2        C        0.9687500000000001        0.296297        0.421171        0        
C3        C        0.9375        0.314815        0.421171        0        
C4        C        0.9687500000000001        0.259259        0.421171        0        
C1        C        0.9375        0.351852        0.421171        0        
C2        C        0.9687500000000001        0.407408        0.421171        0        
C3        C        0.9375        0.425925        0.421171        0        
C4        C        0.9687500000000001        0.37037        0.421171        0        
C1        C        0.9375        0.46296300000000007        0.421171        0        
C2        C        0.9687500000000001        0.518519        0.421171        0        
C3        C        0.9375        0.537037        0.421171        0        
C4        C        0.9687500000000001        0.481481        0.421171        0        
C1        C        0.9375        0.574075        0.421171        0        
C2        C        0.9687500000000001        0.62963        0.421171        0        
C3        C        0.9375        0.648148        0.421171        0        
C4        C        0.9687500000000001        0.592592        0.421171        0        
C_FG        C        0.0        0.685186        0.421171        0.2        
C1        C        0.0625        0.685186        0.421171        0        
C_FG        C        0.125        0.685186        0.421171        0.2        
C1        C        0.1875        0.685186        0.421171        0        
C_FG        C        0.25        0.685186        0.421171        0.2        
C1        C        0.3125        0.685186        0.421171        0        
C_FG        C        0.375        0.685186        0.421171        0.2        
C1        C        0.4375        0.685186        0.421171        0        
C_FG        C        0.5        0.685186        0.421171        0.2        
C1        C        0.5625        0.685186        0.421171        0        
C_FG        C        0.625        0.685186        0.421171        0.2        
C1        C        0.6875        0.685186        0.421171        0        
C_FG        C        0.75        0.685186        0.421171        0.2        
C1        C        0.8125        0.685186        0.421171        0        
C_FG        C        0.875        0.685186        0.421171        0.2        
C1        C        0.9375        0.685186        0.421171        0        
C2        C        0.03125        0.740741        0.421171        0        
C2        C        0.09375        0.740741        0.421171        0        
C2        C        0.15625        0.740741        0.421171        0        
C2        C        0.21875        0.740741        0.421171        0        
C2        C        0.28125        0.740741        0.421171        0        
C2        C        0.34375        0.740741        0.421171        0        
C2        C        0.40625        0.740741        0.421171        0        
C2        C        0.46875        0.740741        0.421171        0        
C2        C        0.53125        0.740741        0.421171        0        
C2        C        0.59375        0.740741        0.421171        0        
C2        C        0.65625        0.740741        0.421171        0        
C2        C        0.71875        0.740741        0.421171        0        
C2        C        0.78125        0.740741        0.421171        0        
C2        C        0.84375        0.740741        0.421171        0        
C2        C        0.9062500000000001        0.740741        0.421171        0        
C2        C        0.9687500000000001        0.740741        0.421171        0        
C3        C        0.0        0.759259        0.421171        0        
C3        C        0.0625        0.759259        0.421171        0        
C3        C        0.125        0.759259        0.421171        0        
C3        C        0.1875        0.759259        0.421171        0        
C3        C        0.25        0.759259        0.421171        0        
C3        C        0.3125        0.759259        0.421171        0        
C3        C        0.375        0.759259        0.421171        0        
C3        C        0.4375        0.759259        0.421171        0        
C3        C        0.5        0.759259        0.421171        0        
C3        C        0.5625        0.759259        0.421171        0        
C3        C        0.625        0.759259        0.421171        0        
C3        C        0.6875        0.759259        0.421171        0        
C3        C        0.75        0.759259        0.421171        0        
C3        C        0.8125        0.759259        0.421171        0        
C3        C        0.875        0.759259        0.421171        0        
C3        C        0.9375        0.759259        0.421171        0        
C4        C        0.03125        0.703703        0.421171        0        
C4        C        0.09375        0.703703        0.421171        0        
C4        C        0.15625        0.703703        0.421171        0        
C4        C        0.21875        0.703703        0.421171        0        
C4        C        0.28125        0.703703        0.421171        0        
C4        C        0.34375        0.703703        0.421171        0        
C4        C        0.40625        0.703703        0.421171        0        
C4        C        0.46875        0.703703        0.421171        0        
C4        C        0.53125        0.703703        0.421171        0        
C4        C        0.59375        0.703703        0.421171        0        
C4        C        0.65625        0.703703        0.421171        0        
C4        C        0.71875        0.703703        0.421171        0        
C4        C        0.78125        0.703703        0.421171        0        
C4        C        0.84375        0.703703        0.421171        0        
C4        C        0.9062500000000001        0.703703        0.421171        0        
C4        C        0.9687500000000001        0.703703        0.421171        0        
C_FG        C        0.0        0.796297        0.421171        0.2        
C1        C        0.0625        0.796297        0.421171        0        
C_FG        C        0.125        0.796297        0.421171        0.2        
C1        C        0.1875        0.796297        0.421171        0        
C_FG        C        0.25        0.796297        0.421171        0.2        
C1        C        0.3125        0.796297        0.421171        0        
C_FG        C        0.375        0.796297        0.421171        0.2        
C1        C        0.4375        0.796297        0.421171        0        
C_FG        C        0.5        0.796297        0.421171        0.2        
C1        C        0.5625        0.796297        0.421171        0        
C_FG        C        0.625        0.796297        0.421171        0.2        
C1        C        0.6875        0.796297        0.421171        0        
C_FG        C        0.75        0.796297        0.421171        0.2        
C1        C        0.8125        0.796297        0.421171        0        
C_FG        C        0.875        0.796297        0.421171        0.2        
C1        C        0.9375        0.796297        0.421171        0        
C2        C        0.03125        0.851852        0.421171        0        
C2        C        0.09375        0.851852        0.421171        0        
C2        C        0.15625        0.851852        0.421171        0        
C2        C        0.21875        0.851852        0.421171        0        
C2        C        0.28125        0.851852        0.421171        0        
C2        C        0.34375        0.851852        0.421171        0        
C2        C        0.40625        0.851852        0.421171        0        
C2        C        0.46875        0.851852        0.421171        0        
C2        C        0.53125        0.851852        0.421171        0        
C2        C        0.59375        0.851852        0.421171        0        
C2        C        0.65625        0.851852        0.421171        0        
C2        C        0.71875        0.851852        0.421171        0        
C2        C        0.78125        0.851852        0.421171        0        
C2        C        0.84375        0.851852        0.421171        0        
C2        C        0.9062500000000001        0.851852        0.421171        0        
C2        C        0.9687500000000001        0.851852        0.421171        0        
C3        C        0.0        0.87037        0.421171        0        
C3        C        0.0625        0.87037        0.421171        0        
C3        C        0.125        0.87037        0.421171        0        
C3        C        0.1875        0.87037        0.421171        0        
C3        C        0.25        0.87037        0.421171        0        
C3        C        0.3125        0.87037        0.421171        0        
C3        C        0.375        0.87037        0.421171        0        
C3        C        0.4375        0.87037        0.421171        0        
C3        C        0.5        0.87037        0.421171        0        
C3        C        0.5625        0.87037        0.421171        0        
C3        C        0.625        0.87037        0.421171        0        
C3        C        0.6875        0.87037        0.421171        0        
C3        C        0.75        0.87037        0.421171        0        
C3        C        0.8125        0.87037        0.421171        0        
C3        C        0.875        0.87037        0.421171        0        
C3        C        0.9375        0.87037        0.421171        0        
C4        C        0.03125        0.814814        0.421171        0        
C4        C        0.09375        0.814814        0.421171        0        
C4        C        0.15625        0.814814        0.421171        0        
C4        C        0.21875        0.814814        0.421171        0        
C4        C        0.28125        0.814814        0.421171        0        
C4        C        0.34375        0.814814        0.421171        0        
C4        C        0.40625        0.814814        0.421171        0        
C4        C        0.46875        0.814814        0.421171        0        
C4        C        0.53125        0.814814        0.421171        0        
C4        C        0.59375        0.814814        0.421171        0        
C4        C        0.65625        0.814814        0.421171        0        
C4        C        0.71875        0.814814        0.421171        0        
C4        C        0.78125        0.814814        0.421171        0        
C4        C        0.84375        0.814814        0.421171        0        
C4        C        0.9062500000000001        0.814814        0.421171        0        
C4        C        0.9687500000000001        0.814814        0.421171        0        
C_FG        C        0.0        0.907408        0.421171        0.2        
C1        C        0.0625        0.907408        0.421171        0        
C_FG        C        0.125        0.907408        0.421171        0.2        
C1        C        0.1875        0.907408        0.421171        0        
C_FG        C        0.25        0.907408        0.421171        0.2        
C1        C        0.3125        0.907408        0.421171        0        
C_FG        C        0.375        0.907408        0.421171        0.2        
C1        C        0.4375        0.907408        0.421171        0        
C_FG        C        0.5        0.907408        0.421171        0.2        
C1        C        0.5625        0.907408        0.421171        0        
C_FG        C        0.625        0.907408        0.421171        0.2        
C1        C        0.6875        0.907408        0.421171        0        
C_FG        C        0.75        0.907408        0.421171        0.2        
C1        C        0.8125        0.907408        0.421171        0        
C_FG        C        0.875        0.907408        0.421171        0.2        
C1        C        0.9375        0.907408        0.421171        0        
C2        C        0.03125        0.962963        0.421171        0        
C2        C        0.09375        0.962963        0.421171        0        
C2        C        0.15625        0.962963        0.421171        0        
C2        C        0.21875        0.962963        0.421171        0        
C2        C        0.28125        0.962963        0.421171        0        
C2        C        0.34375        0.962963        0.421171        0        
C2        C        0.40625        0.962963        0.421171        0        
C2        C        0.46875        0.962963        0.421171        0        
C2        C        0.53125        0.962963        0.421171        0        
C2        C        0.59375        0.962963        0.421171        0        
C2        C        0.65625        0.962963        0.421171        0        
C2        C        0.71875        0.962963        0.421171        0        
C2        C        0.78125        0.962963        0.421171        0        
C2        C        0.84375        0.962963        0.421171        0        
C2        C        0.9062500000000001        0.962963        0.421171        0        
C2        C        0.9687500000000001        0.962963        0.421171        0        
C3        C        0.0        0.9814809999999999        0.421171        0        
C3        C        0.0625        0.9814809999999999        0.421171        0        
C3        C        0.125        0.9814809999999999        0.421171        0        
C3        C        0.1875        0.9814809999999999        0.421171        0        
C3        C        0.25        0.9814809999999999        0.421171        0        
C3        C        0.3125        0.9814809999999999        0.421171        0        
C3        C        0.375        0.9814809999999999        0.421171        0        
C3        C        0.4375        0.9814809999999999        0.421171        0        
C3        C        0.5        0.9814809999999999        0.421171        0        
C3        C        0.5625        0.9814809999999999        0.421171        0        
C3        C        0.625        0.9814809999999999        0.421171        0        
C3        C        0.6875        0.9814809999999999        0.421171        0        
C3        C        0.75        0.9814809999999999        0.421171        0        
C3        C        0.8125        0.9814809999999999        0.421171        0        
C3        C        0.875        0.9814809999999999        0.421171        0        
C3        C        0.9375        0.9814809999999999        0.421171        0        
C4        C        0.03125        0.925925        0.421171        0        
C4        C        0.09375        0.925925        0.421171        0        
C4        C        0.15625        0.925925        0.421171        0        
C4        C        0.21875        0.925925        0.421171        0        
C4        C        0.28125        0.925925        0.421171        0        
C4        C        0.34375        0.925925        0.421171        0        
C4        C        0.40625        0.925925        0.421171        0        
C4        C        0.46875        0.925925        0.421171        0        
C4        C        0.53125        0.925925        0.421171        0        
C4        C        0.59375        0.925925        0.421171        0        
C4        C        0.65625        0.925925        0.421171        0        
C4        C        0.71875        0.925925        0.421171        0        
C4        C        0.78125        0.925925        0.421171        0        
C4        C        0.84375        0.925925        0.421171        0        
C4        C        0.9062500000000001        0.925925        0.421171        0        
C4        C        0.9687500000000001        0.925925        0.421171        0        
C_FG        C        0.0        0.018519        0.578829        0.2        
C2        C        0.03125        0.074075        0.578829        0        
C3        C        0.0        0.092592        0.578829        0        
C4        C        0.03125        0.037037        0.578829        0        
C_FG        C        0.0        0.12963        0.578829        0.2        
C2        C        0.03125        0.185185        0.578829        0        
C3        C        0.0        0.203703        0.578829        0        
C4        C        0.03125        0.148148        0.578829        0        
C_FG        C        0.0        0.24074099999999998        0.578829        0.2        
C2        C        0.03125        0.296297        0.578829        0        
C3        C        0.0        0.314815        0.578829        0        
C4        C        0.03125        0.259259        0.578829        0        
C_FG        C        0.0        0.351852        0.578829        0.2        
C2        C        0.03125        0.407408        0.578829        0        
C3        C        0.0        0.425925        0.578829        0        
C4        C        0.03125        0.37037        0.578829        0        
C_FG        C        0.0        0.46296300000000007        0.578829        0.2        
C2        C        0.03125        0.518519        0.578829        0        
C3        C        0.0        0.537037        0.578829        0        
C4        C        0.03125        0.481481        0.578829        0        
C_FG        C        0.0        0.574075        0.578829        0.2        
C2        C        0.03125        0.62963        0.578829        0        
C3        C        0.0        0.648148        0.578829        0        
C4        C        0.03125        0.592592        0.578829        0        
C1        C        0.0625        0.018519        0.578829        0        
C2        C        0.09375        0.074075        0.578829        0        
C3        C        0.0625        0.092592        0.578829        0        
C4        C        0.09375        0.037037        0.578829        0        
C1        C        0.0625        0.12963        0.578829        0        
C2        C        0.09375        0.185185        0.578829        0        
C3        C        0.0625        0.203703        0.578829        0        
C4        C        0.09375        0.148148        0.578829        0        
C1        C        0.0625        0.24074099999999998        0.578829        0        
C2        C        0.09375        0.296297        0.578829        0        
C3        C        0.0625        0.314815        0.578829        0        
C4        C        0.09375        0.259259        0.578829        0        
C1        C        0.0625        0.351852        0.578829        0        
C2        C        0.09375        0.407408        0.578829        0        
C3        C        0.0625        0.425925        0.578829        0        
C4        C        0.09375        0.37037        0.578829        0        
C1        C        0.0625        0.46296300000000007        0.578829        0        
C2        C        0.09375        0.518519        0.578829        0        
C3        C        0.0625        0.537037        0.578829        0        
C4        C        0.09375        0.481481        0.578829        0        
C1        C        0.0625        0.574075        0.578829        0        
C2        C        0.09375        0.62963        0.578829        0        
C3        C        0.0625        0.648148        0.578829        0        
C4        C        0.09375        0.592592        0.578829        0        
C_FG        C        0.125        0.018519        0.578829        0.2        
C2        C        0.15625        0.074075        0.578829        0        
C3        C        0.125        0.092592        0.578829        0        
C4        C        0.15625        0.037037        0.578829        0        
C_FG        C        0.125        0.12963        0.578829        0.2        
C2        C        0.15625        0.185185        0.578829        0        
C3        C        0.125        0.203703        0.578829        0        
C4        C        0.15625        0.148148        0.578829        0        
C_FG        C        0.125        0.24074099999999998        0.578829        0.2        
C2        C        0.15625        0.296297        0.578829        0        
C3        C        0.125        0.314815        0.578829        0        
C4        C        0.15625        0.259259        0.578829        0        
C_FG        C        0.125        0.351852        0.578829        0.2        
C2        C        0.15625        0.407408        0.578829        0        
C3        C        0.125        0.425925        0.578829        0        
C4        C        0.15625        0.37037        0.578829        0        
C_FG        C        0.125        0.46296300000000007        0.578829        0.2        
C2        C        0.15625        0.518519        0.578829        0        
C3        C        0.125        0.537037        0.578829        0        
C4        C        0.15625        0.481481        0.578829        0        
C_FG        C        0.125        0.574075        0.578829        0.2        
C2        C        0.15625        0.62963        0.578829        0        
C3        C        0.125        0.648148        0.578829        0        
C4        C        0.15625        0.592592        0.578829        0        
C1        C        0.1875        0.018519        0.578829        0        
C2        C        0.21875        0.074075        0.578829        0        
C3        C        0.1875        0.092592        0.578829        0        
C4        C        0.21875        0.037037        0.578829        0        
C1        C        0.1875        0.12963        0.578829        0        
C2        C        0.21875        0.185185        0.578829        0        
C3        C        0.1875        0.203703        0.578829        0        
C4        C        0.21875        0.148148        0.578829        0        
C1        C        0.1875        0.24074099999999998        0.578829        0        
C2        C        0.21875        0.296297        0.578829        0        
C3        C        0.1875        0.314815        0.578829        0        
C4        C        0.21875        0.259259        0.578829        0        
C1        C        0.1875        0.351852        0.578829        0        
C2        C        0.21875        0.407408        0.578829        0        
C3        C        0.1875        0.425925        0.578829        0        
C4        C        0.21875        0.37037        0.578829        0        
C1        C        0.1875        0.46296300000000007        0.578829        0        
C2        C        0.21875        0.518519        0.578829        0        
C3        C        0.1875        0.537037        0.578829        0        
C4        C        0.21875        0.481481        0.578829        0        
C1        C        0.1875        0.574075        0.578829        0        
C2        C        0.21875        0.62963        0.578829        0        
C3        C        0.1875        0.648148        0.578829        0        
C4        C        0.21875        0.592592        0.578829        0        
C_FG        C        0.25        0.018519        0.578829        0.2        
C2        C        0.28125        0.074075        0.578829        0        
C3        C        0.25        0.092592        0.578829        0        
C4        C        0.28125        0.037037        0.578829        0        
C_FG        C        0.25        0.12963        0.578829        0.2        
C2        C        0.28125        0.185185        0.578829        0        
C3        C        0.25        0.203703        0.578829        0        
C4        C        0.28125        0.148148        0.578829        0        
C_FG        C        0.25        0.24074099999999998        0.578829        0.2        
C2        C        0.28125        0.296297        0.578829        0        
C3        C        0.25        0.314815        0.578829        0        
C4        C        0.28125        0.259259        0.578829        0        
C_FG        C        0.25        0.351852        0.578829        0.2        
C2        C        0.28125        0.407408        0.578829        0        
C3        C        0.25        0.425925        0.578829        0        
C4        C        0.28125        0.37037        0.578829        0        
C_FG        C        0.25        0.46296300000000007        0.578829        0.2        
C2        C        0.28125        0.518519        0.578829        0        
C3        C        0.25        0.537037        0.578829        0        
C4        C        0.28125        0.481481        0.578829        0        
C_FG        C        0.25        0.574075        0.578829        0.2        
C2        C        0.28125        0.62963        0.578829        0        
C3        C        0.25        0.648148        0.578829        0        
C4        C        0.28125        0.592592        0.578829        0        
C1        C        0.3125        0.018519        0.578829        0        
C2        C        0.34375        0.074075        0.578829        0        
C3        C        0.3125        0.092592        0.578829        0        
C4        C        0.34375        0.037037        0.578829        0        
C1        C        0.3125        0.12963        0.578829        0        
C2        C        0.34375        0.185185        0.578829        0        
C3        C        0.3125        0.203703        0.578829        0        
C4        C        0.34375        0.148148        0.578829        0        
C1        C        0.3125        0.24074099999999998        0.578829        0        
C2        C        0.34375        0.296297        0.578829        0        
C3        C        0.3125        0.314815        0.578829        0        
C4        C        0.34375        0.259259        0.578829        0        
C1        C        0.3125        0.351852        0.578829        0        
C2        C        0.34375        0.407408        0.578829        0        
C3        C        0.3125        0.425925        0.578829        0        
C4        C        0.34375        0.37037        0.578829        0        
C1        C        0.3125        0.46296300000000007        0.578829        0        
C2        C        0.34375        0.518519        0.578829        0        
C3        C        0.3125        0.537037        0.578829        0        
C4        C        0.34375        0.481481        0.578829        0        
C1        C        0.3125        0.574075        0.578829        0        
C2        C        0.34375        0.62963        0.578829        0        
C3        C        0.3125        0.648148        0.578829        0        
C4        C        0.34375        0.592592        0.578829        0        
C_FG        C        0.375        0.018519        0.578829        0.2        
C2        C        0.40625        0.074075        0.578829        0        
C3        C        0.375        0.092592        0.578829        0        
C4        C        0.40625        0.037037        0.578829        0        
C_FG        C        0.375        0.12963        0.578829        0.2        
C2        C        0.40625        0.185185        0.578829        0        
C3        C        0.375        0.203703        0.578829        0        
C4        C        0.40625        0.148148        0.578829        0        
C_FG        C        0.375        0.24074099999999998        0.578829        0.2        
C2        C        0.40625        0.296297        0.578829        0        
C3        C        0.375        0.314815        0.578829        0        
C4        C        0.40625        0.259259        0.578829        0        
C_FG        C        0.375        0.351852        0.578829        0.2        
C2        C        0.40625        0.407408        0.578829        0        
C3        C        0.375        0.425925        0.578829        0        
C4        C        0.40625        0.37037        0.578829        0        
C_FG        C        0.375        0.46296300000000007        0.578829        0.2        
C2        C        0.40625        0.518519        0.578829        0        
C3        C        0.375        0.537037        0.578829        0        
C4        C        0.40625        0.481481        0.578829        0        
C_FG        C        0.375        0.574075        0.578829        0.2        
C2        C        0.40625        0.62963        0.578829        0        
C3        C        0.375        0.648148        0.578829        0        
C4        C        0.40625        0.592592        0.578829        0        
C1        C        0.4375        0.018519        0.578829        0        
C2        C        0.46875        0.074075        0.578829        0        
C3        C        0.4375        0.092592        0.578829        0        
C4        C        0.46875        0.037037        0.578829        0        
C1        C        0.4375        0.12963        0.578829        0        
C2        C        0.46875        0.185185        0.578829        0        
C3        C        0.4375        0.203703        0.578829        0        
C4        C        0.46875        0.148148        0.578829        0        
C1        C        0.4375        0.24074099999999998        0.578829        0        
C2        C        0.46875        0.296297        0.578829        0        
C3        C        0.4375        0.314815        0.578829        0        
C4        C        0.46875        0.259259        0.578829        0        
C1        C        0.4375        0.351852        0.578829        0        
C2        C        0.46875        0.407408        0.578829        0        
C3        C        0.4375        0.425925        0.578829        0        
C4        C        0.46875        0.37037        0.578829        0        
C1        C        0.4375        0.46296300000000007        0.578829        0        
C2        C        0.46875        0.518519        0.578829        0        
C3        C        0.4375        0.537037        0.578829        0        
C4        C        0.46875        0.481481        0.578829        0        
C1        C        0.4375        0.574075        0.578829        0        
C2        C        0.46875        0.62963        0.578829        0        
C3        C        0.4375        0.648148        0.578829        0        
C4        C        0.46875        0.592592        0.578829        0        
C_FG        C        0.5        0.018519        0.578829        0.2        
C2        C        0.53125        0.074075        0.578829        0        
C3        C        0.5        0.092592        0.578829        0        
C4        C        0.53125        0.037037        0.578829        0        
C_FG        C        0.5        0.12963        0.578829        0.2        
C2        C        0.53125        0.185185        0.578829        0        
C3        C        0.5        0.203703        0.578829        0        
C4        C        0.53125        0.148148        0.578829        0        
C_FG        C        0.5        0.24074099999999998        0.578829        0.2        
C2        C        0.53125        0.296297        0.578829        0        
C3        C        0.5        0.314815        0.578829        0        
C4        C        0.53125        0.259259        0.578829        0        
C_FG        C        0.5        0.351852        0.578829        0.2        
C2        C        0.53125        0.407408        0.578829        0        
C3        C        0.5        0.425925        0.578829        0        
C4        C        0.53125        0.37037        0.578829        0        
C_FG        C        0.5        0.46296300000000007        0.578829        0.2        
C2        C        0.53125        0.518519        0.578829        0        
C3        C        0.5        0.537037        0.578829        0        
C4        C        0.53125        0.481481        0.578829        0        
C_FG        C        0.5        0.574075        0.578829        0.2        
C2        C        0.53125        0.62963        0.578829        0        
C3        C        0.5        0.648148        0.578829        0        
C4        C        0.53125        0.592592        0.578829        0        
C1        C        0.5625        0.018519        0.578829        0        
C2        C        0.59375        0.074075        0.578829        0        
C3        C        0.5625        0.092592        0.578829        0        
C4        C        0.59375        0.037037        0.578829        0        
C1        C        0.5625        0.12963        0.578829        0        
C2        C        0.59375        0.185185        0.578829        0        
C3        C        0.5625        0.203703        0.578829        0        
C4        C        0.59375        0.148148        0.578829        0        
C1        C        0.5625        0.24074099999999998        0.578829        0        
C2        C        0.59375        0.296297        0.578829        0        
C3        C        0.5625        0.314815        0.578829        0        
C4        C        0.59375        0.259259        0.578829        0        
C1        C        0.5625        0.351852        0.578829        0        
C2        C        0.59375        0.407408        0.578829        0        
C3        C        0.5625        0.425925        0.578829        0        
C4        C        0.59375        0.37037        0.578829        0        
C1        C        0.5625        0.46296300000000007        0.578829        0        
C2        C        0.59375        0.518519        0.578829        0        
C3        C        0.5625        0.537037        0.578829        0        
C4        C        0.59375        0.481481        0.578829        0        
C1        C        0.5625        0.574075        0.578829        0        
C2        C        0.59375        0.62963        0.578829        0        
C3        C        0.5625        0.648148        0.578829        0        
C4        C        0.59375        0.592592        0.578829        0        
C_FG        C        0.625        0.018519        0.578829        0.2        
C2        C        0.65625        0.074075        0.578829        0        
C3        C        0.625        0.092592        0.578829        0        
C4        C        0.65625        0.037037        0.578829        0        
C_FG        C        0.625        0.12963        0.578829        0.2        
C2        C        0.65625        0.185185        0.578829        0        
C3        C        0.625        0.203703        0.578829        0        
C4        C        0.65625        0.148148        0.578829        0        
C_FG        C        0.625        0.24074099999999998        0.578829        0.2        
C2        C        0.65625        0.296297        0.578829        0        
C3        C        0.625        0.314815        0.578829        0        
C4        C        0.65625        0.259259        0.578829        0        
C_FG        C        0.625        0.351852        0.578829        0.2        
C2        C        0.65625        0.407408        0.578829        0        
C3        C        0.625        0.425925        0.578829        0        
C4        C        0.65625        0.37037        0.578829        0        
C_FG        C        0.625        0.46296300000000007        0.578829        0.2        
C2        C        0.65625        0.518519        0.578829        0        
C3        C        0.625        0.537037        0.578829        0        
C4        C        0.65625        0.481481        0.578829        0        
C_FG        C        0.625        0.574075        0.578829        0.2        
C2        C        0.65625        0.62963        0.578829        0        
C3        C        0.625        0.648148        0.578829        0        
C4        C        0.65625        0.592592        0.578829        0        
C1        C        0.6875        0.018519        0.578829        0        
C2        C        0.71875        0.074075        0.578829        0        
C3        C        0.6875        0.092592        0.578829        0        
C4        C        0.71875        0.037037        0.578829        0        
C1        C        0.6875        0.12963        0.578829        0        
C2        C        0.71875        0.185185        0.578829        0        
C3        C        0.6875        0.203703        0.578829        0        
C4        C        0.71875        0.148148        0.578829        0        
C1        C        0.6875        0.24074099999999998        0.578829        0        
C2        C        0.71875        0.296297        0.578829        0        
C3        C        0.6875        0.314815        0.578829        0        
C4        C        0.71875        0.259259        0.578829        0        
C1        C        0.6875        0.351852        0.578829        0        
C2        C        0.71875        0.407408        0.578829        0        
C3        C        0.6875        0.425925        0.578829        0        
C4        C        0.71875        0.37037        0.578829        0        
C1        C        0.6875        0.46296300000000007        0.578829        0        
C2        C        0.71875        0.518519        0.578829        0        
C3        C        0.6875        0.537037        0.578829        0        
C4        C        0.71875        0.481481        0.578829        0        
C1        C        0.6875        0.574075        0.578829        0        
C2        C        0.71875        0.62963        0.578829        0        
C3        C        0.6875        0.648148        0.578829        0        
C4        C        0.71875        0.592592        0.578829        0        
C_FG        C        0.75        0.018519        0.578829        0.2        
C2        C        0.78125        0.074075        0.578829        0        
C3        C        0.75        0.092592        0.578829        0        
C4        C        0.78125        0.037037        0.578829        0        
C_FG        C        0.75        0.12963        0.578829        0.2        
C2        C        0.78125        0.185185        0.578829        0        
C3        C        0.75        0.203703        0.578829        0        
C4        C        0.78125        0.148148        0.578829        0        
C_FG        C        0.75        0.24074099999999998        0.578829        0.2        
C2        C        0.78125        0.296297        0.578829        0        
C3        C        0.75        0.314815        0.578829        0        
C4        C        0.78125        0.259259        0.578829        0        
C_FG        C        0.75        0.351852        0.578829        0.2        
C2        C        0.78125        0.407408        0.578829        0        
C3        C        0.75        0.425925        0.578829        0        
C4        C        0.78125        0.37037        0.578829        0        
C_FG        C        0.75        0.46296300000000007        0.578829        0.2        
C2        C        0.78125        0.518519        0.578829        0        
C3        C        0.75        0.537037        0.578829        0        
C4        C        0.78125        0.481481        0.578829        0        
C_FG        C        0.75        0.574075        0.578829        0.2        
C2        C        0.78125        0.62963        0.578829        0        
C3        C        0.75        0.648148        0.578829        0        
C4        C        0.78125        0.592592        0.578829        0        
C1        C        0.8125        0.018519        0.578829        0        
C2        C        0.84375        0.074075        0.578829        0        
C3        C        0.8125        0.092592        0.578829        0        
C4        C        0.84375        0.037037        0.578829        0        
C1        C        0.8125        0.12963        0.578829        0        
C2        C        0.84375        0.185185        0.578829        0        
C3        C        0.8125        0.203703        0.578829        0        
C4        C        0.84375        0.148148        0.578829        0        
C1        C        0.8125        0.24074099999999998        0.578829        0        
C2        C        0.84375        0.296297        0.578829        0        
C3        C        0.8125        0.314815        0.578829        0        
C4        C        0.84375        0.259259        0.578829        0        
C1        C        0.8125        0.351852        0.578829        0        
C2        C        0.84375        0.407408        0.578829        0        
C3        C        0.8125        0.425925        0.578829        0        
C4        C        0.84375        0.37037        0.578829        0        
C1        C        0.8125        0.46296300000000007        0.578829        0        
C2        C        0.84375        0.518519        0.578829        0        
C3        C        0.8125        0.537037        0.578829        0        
C4        C        0.84375        0.481481        0.578829        0        
C1        C        0.8125        0.574075        0.578829        0        
C2        C        0.84375        0.62963        0.578829        0        
C3        C        0.8125        0.648148        0.578829        0        
C4        C        0.84375        0.592592        0.578829        0        
C_FG        C        0.875        0.018519        0.578829        0.2        
C2        C        0.9062500000000001        0.074075        0.578829        0        
C3        C        0.875        0.092592        0.578829        0        
C4        C        0.9062500000000001        0.037037        0.578829        0        
C_FG        C        0.875        0.12963        0.578829        0.2        
C2        C        0.9062500000000001        0.185185        0.578829        0        
C3        C        0.875        0.203703        0.578829        0        
C4        C        0.9062500000000001        0.148148        0.578829        0        
C_FG        C        0.875        0.24074099999999998        0.578829        0.2        
C2        C        0.9062500000000001        0.296297        0.578829        0        
C3        C        0.875        0.314815        0.578829        0        
C4        C        0.9062500000000001        0.259259        0.578829        0        
C_FG        C        0.875        0.351852        0.578829        0.2        
C2        C        0.9062500000000001        0.407408        0.578829        0        
C3        C        0.875        0.425925        0.578829        0        
C4        C        0.9062500000000001        0.37037        0.578829        0        
C_FG        C        0.875        0.46296300000000007        0.578829        0.2        
C2        C        0.9062500000000001        0.518519        0.578829        0        
C3        C        0.875        0.537037        0.578829        0        
C4        C        0.9062500000000001        0.481481        0.578829        0        
C_FG        C        0.875        0.574075        0.578829        0.2        
C2        C        0.9062500000000001        0.62963        0.578829        0        
C3        C        0.875        0.648148        0.578829        0        
C4        C        0.9062500000000001        0.592592        0.578829        0        
C1        C        0.9375        0.018519        0.578829        0        
C2        C        0.9687500000000001        0.074075        0.578829        0        
C3        C        0.9375        0.092592        0.578829        0        
C4        C        0.9687500000000001        0.037037        0.578829        0        
C1        C        0.9375        0.12963        0.578829        0        
C2        C        0.9687500000000001        0.185185        0.578829        0        
C3        C        0.9375        0.203703        0.578829        0        
C4        C        0.9687500000000001        0.148148        0.578829        0        
C1        C        0.9375        0.24074099999999998        0.578829        0        
C2        C        0.9687500000000001        0.296297        0.578829        0        
C3        C        0.9375        0.314815        0.578829        0        
C4        C        0.9687500000000001        0.259259        0.578829        0        
C1        C        0.9375        0.351852        0.578829        0        
C2        C        0.9687500000000001        0.407408        0.578829        0        
C3        C        0.9375        0.425925        0.578829        0        
C4        C        0.9687500000000001        0.37037        0.578829        0        
C1        C        0.9375        0.46296300000000007        0.578829        0        
C2        C        0.9687500000000001        0.518519        0.578829        0        
C3        C        0.9375        0.537037        0.578829        0        
C4        C        0.9687500000000001        0.481481        0.578829        0        
C1        C        0.9375        0.574075        0.578829        0        
C2        C        0.9687500000000001        0.62963        0.578829        0        
C3        C        0.9375        0.648148        0.578829        0        
C4        C        0.9687500000000001        0.592592        0.578829        0        
C_FG        C        0.0        0.685186        0.578829        0.2        
C1        C        0.0625        0.685186        0.578829        0        
C_FG        C        0.125        0.685186        0.578829        0.2        
C1        C        0.1875        0.685186        0.578829        0        
C_FG        C        0.25        0.685186        0.578829        0.2        
C1        C        0.3125        0.685186        0.578829        0        
C_FG        C        0.375        0.685186        0.578829        0.2        
C1        C        0.4375        0.685186        0.578829        0        
C_FG        C        0.5        0.685186        0.578829        0.2        
C1        C        0.5625        0.685186        0.578829        0        
C_FG        C        0.625        0.685186        0.578829        0.2        
C1        C        0.6875        0.685186        0.578829        0        
C_FG        C        0.75        0.685186        0.578829        0.2        
C1        C        0.8125        0.685186        0.578829        0        
C_FG        C        0.875        0.685186        0.578829        0.2        
C1        C        0.9375        0.685186        0.578829        0        
C2        C        0.03125        0.740741        0.578829        0        
C2        C        0.09375        0.740741        0.578829        0        
C2        C        0.15625        0.740741        0.578829        0        
C2        C        0.21875        0.740741        0.578829        0        
C2        C        0.28125        0.740741        0.578829        0        
C2        C        0.34375        0.740741        0.578829        0        
C2        C        0.40625        0.740741        0.578829        0        
C2        C        0.46875        0.740741        0.578829        0        
C2        C        0.53125        0.740741        0.578829        0        
C2        C        0.59375        0.740741        0.578829        0        
C2        C        0.65625        0.740741        0.578829        0        
C2        C        0.71875        0.740741        0.578829        0        
C2        C        0.78125        0.740741        0.578829        0        
C2        C        0.84375        0.740741        0.578829        0        
C2        C        0.9062500000000001        0.740741        0.578829        0        
C2        C        0.9687500000000001        0.740741        0.578829        0        
C3        C        0.0        0.759259        0.578829        0        
C3        C        0.0625        0.759259        0.578829        0        
C3        C        0.125        0.759259        0.578829        0        
C3        C        0.1875        0.759259        0.578829        0        
C3        C        0.25        0.759259        0.578829        0        
C3        C        0.3125        0.759259        0.578829        0        
C3        C        0.375        0.759259        0.578829        0        
C3        C        0.4375        0.759259        0.578829        0        
C3        C        0.5        0.759259        0.578829        0        
C3        C        0.5625        0.759259        0.578829        0        
C3        C        0.625        0.759259        0.578829        0        
C3        C        0.6875        0.759259        0.578829        0        
C3        C        0.75        0.759259        0.578829        0        
C3        C        0.8125        0.759259        0.578829        0        
C3        C        0.875        0.759259        0.578829        0        
C3        C        0.9375        0.759259        0.578829        0        
C4        C        0.03125        0.703703        0.578829        0        
C4        C        0.09375        0.703703        0.578829        0        
C4        C        0.15625        0.703703        0.578829        0        
C4        C        0.21875        0.703703        0.578829        0        
C4        C        0.28125        0.703703        0.578829        0        
C4        C        0.34375        0.703703        0.578829        0        
C4        C        0.40625        0.703703        0.578829        0        
C4        C        0.46875        0.703703        0.578829        0        
C4        C        0.53125        0.703703        0.578829        0        
C4        C        0.59375        0.703703        0.578829        0        
C4        C        0.65625        0.703703        0.578829        0        
C4        C        0.71875        0.703703        0.578829        0        
C4        C        0.78125        0.703703        0.578829        0        
C4        C        0.84375        0.703703        0.578829        0        
C4        C        0.9062500000000001        0.703703        0.578829        0        
C4        C        0.9687500000000001        0.703703        0.578829        0        
C_FG        C        0.0        0.796297        0.578829        0.2        
C1        C        0.0625        0.796297        0.578829        0        
C_FG        C        0.125        0.796297        0.578829        0.2        
C1        C        0.1875        0.796297        0.578829        0        
C_FG        C        0.25        0.796297        0.578829        0.2        
C1        C        0.3125        0.796297        0.578829        0        
C_FG        C        0.375        0.796297        0.578829        0.2        
C1        C        0.4375        0.796297        0.578829        0        
C_FG        C        0.5        0.796297        0.578829        0.2        
C1        C        0.5625        0.796297        0.578829        0        
C_FG        C        0.625        0.796297        0.578829        0.2        
C1        C        0.6875        0.796297        0.578829        0        
C_FG        C        0.75        0.796297        0.578829        0.2        
C1        C        0.8125        0.796297        0.578829        0        
C_FG        C        0.875        0.796297        0.578829        0.2        
C1        C        0.9375        0.796297        0.578829        0        
C2        C        0.03125        0.851852        0.578829        0        
C2        C        0.09375        0.851852        0.578829        0        
C2        C        0.15625        0.851852        0.578829        0        
C2        C        0.21875        0.851852        0.578829        0        
C2        C        0.28125        0.851852        0.578829        0        
C2        C        0.34375        0.851852        0.578829        0        
C2        C        0.40625        0.851852        0.578829        0        
C2        C        0.46875        0.851852        0.578829        0        
C2        C        0.53125        0.851852        0.578829        0        
C2        C        0.59375        0.851852        0.578829        0        
C2        C        0.65625        0.851852        0.578829        0        
C2        C        0.71875        0.851852        0.578829        0        
C2        C        0.78125        0.851852        0.578829        0        
C2        C        0.84375        0.851852        0.578829        0        
C2        C        0.9062500000000001        0.851852        0.578829        0        
C2        C        0.9687500000000001        0.851852        0.578829        0        
C3        C        0.0        0.87037        0.578829        0        
C3        C        0.0625        0.87037        0.578829        0        
C3        C        0.125        0.87037        0.578829        0        
C3        C        0.1875        0.87037        0.578829        0        
C3        C        0.25        0.87037        0.578829        0        
C3        C        0.3125        0.87037        0.578829        0        
C3        C        0.375        0.87037        0.578829        0        
C3        C        0.4375        0.87037        0.578829        0        
C3        C        0.5        0.87037        0.578829        0        
C3        C        0.5625        0.87037        0.578829        0        
C3        C        0.625        0.87037        0.578829        0        
C3        C        0.6875        0.87037        0.578829        0        
C3        C        0.75        0.87037        0.578829        0        
C3        C        0.8125        0.87037        0.578829        0        
C3        C        0.875        0.87037        0.578829        0        
C3        C        0.9375        0.87037        0.578829        0        
C4        C        0.03125        0.814814        0.578829        0        
C4        C        0.09375        0.814814        0.578829        0        
C4        C        0.15625        0.814814        0.578829        0        
C4        C        0.21875        0.814814        0.578829        0        
C4        C        0.28125        0.814814        0.578829        0        
C4        C        0.34375        0.814814        0.578829        0        
C4        C        0.40625        0.814814        0.578829        0        
C4        C        0.46875        0.814814        0.578829        0        
C4        C        0.53125        0.814814        0.578829        0        
C4        C        0.59375        0.814814        0.578829        0        
C4        C        0.65625        0.814814        0.578829        0        
C4        C        0.71875        0.814814        0.578829        0        
C4        C        0.78125        0.814814        0.578829        0        
C4        C        0.84375        0.814814        0.578829        0        
C4        C        0.9062500000000001        0.814814        0.578829        0        
C4        C        0.9687500000000001        0.814814        0.578829        0        
C_FG        C        0.0        0.907408        0.578829        0.2        
C1        C        0.0625        0.907408        0.578829        0        
C_FG        C        0.125        0.907408        0.578829        0.2        
C1        C        0.1875        0.907408        0.578829        0        
C_FG        C        0.25        0.907408        0.578829        0.2        
C1        C        0.3125        0.907408        0.578829        0        
C_FG        C        0.375        0.907408        0.578829        0.2        
C1        C        0.4375        0.907408        0.578829        0        
C_FG        C        0.5        0.907408        0.578829        0.2        
C1        C        0.5625        0.907408        0.578829        0        
C_FG        C        0.625        0.907408        0.578829        0.2        
C1        C        0.6875        0.907408        0.578829        0        
C_FG        C        0.75        0.907408        0.578829        0.2        
C1        C        0.8125        0.907408        0.578829        0        
C_FG        C        0.875        0.907408        0.578829        0.2        
C1        C        0.9375        0.907408        0.578829        0        
C2        C        0.03125        0.962963        0.578829        0        
C2        C        0.09375        0.962963        0.578829        0        
C2        C        0.15625        0.962963        0.578829        0        
C2        C        0.21875        0.962963        0.578829        0        
C2        C        0.28125        0.962963        0.578829        0        
C2        C        0.34375        0.962963        0.578829        0        
C2        C        0.40625        0.962963        0.578829        0        
C2        C        0.46875        0.962963        0.578829        0        
C2        C        0.53125        0.962963        0.578829        0        
C2        C        0.59375        0.962963        0.578829        0        
C2        C        0.65625        0.962963        0.578829        0        
C2        C        0.71875        0.962963        0.578829        0        
C2        C        0.78125        0.962963        0.578829        0        
C2        C        0.84375        0.962963        0.578829        0        
C2        C        0.9062500000000001        0.962963        0.578829        0        
C2        C        0.9687500000000001        0.962963        0.578829        0        
C3        C        0.0        0.9814809999999999        0.578829        0        
C3        C        0.0625        0.9814809999999999        0.578829        0        
C3        C        0.125        0.9814809999999999        0.578829        0        
C3        C        0.1875        0.9814809999999999        0.578829        0        
C3        C        0.25        0.9814809999999999        0.578829        0        
C3        C        0.3125        0.9814809999999999        0.578829        0        
C3        C        0.375        0.9814809999999999        0.578829        0        
C3        C        0.4375        0.9814809999999999        0.578829        0        
C3        C        0.5        0.9814809999999999        0.578829        0        
C3        C        0.5625        0.9814809999999999        0.578829        0        
C3        C        0.625        0.9814809999999999        0.578829        0        
C3        C        0.6875        0.9814809999999999        0.578829        0        
C3        C        0.75        0.9814809999999999        0.578829        0        
C3        C        0.8125        0.9814809999999999        0.578829        0        
C3        C        0.875        0.9814809999999999        0.578829        0        
C3        C        0.9375        0.9814809999999999        0.578829        0        
C4        C        0.03125        0.925925        0.578829        0        
C4        C        0.09375        0.925925        0.578829        0        
C4        C        0.15625        0.925925        0.578829        0        
C4        C        0.21875        0.925925        0.578829        0        
C4        C        0.28125        0.925925        0.578829        0        
C4        C        0.34375        0.925925        0.578829        0        
C4        C        0.40625        0.925925        0.578829        0        
C4        C        0.46875        0.925925        0.578829        0        
C4        C        0.53125        0.925925        0.578829        0        
C4        C        0.59375        0.925925        0.578829        0        
C4        C        0.65625        0.925925        0.578829        0        
C4        C        0.71875        0.925925        0.578829        0        
C4        C        0.78125        0.925925        0.578829        0        
C4        C        0.84375        0.925925        0.578829        0        
C4        C        0.9062500000000001        0.925925        0.578829        0        
C4        C        0.9687500000000001        0.925925        0.578829        0        
C1        C        0.0        0.018519        0.654279        0        
C2        C        0.03125        0.074075        0.654279        0        
C3        C        0.0        0.092592        0.654279        0        
C4        C        0.03125        0.037037        0.654279        0        
C1        C        0.0        0.12963        0.654279        0        
C2        C        0.03125        0.185185        0.654279        0        
C3        C        0.0        0.203703        0.654279        0        
C4        C        0.03125        0.148148        0.654279        0        
C1        C        0.0        0.24074099999999998        0.654279        0        
C2        C        0.03125        0.296297        0.654279        0        
C3        C        0.0        0.314815        0.654279        0        
C4        C        0.03125        0.259259        0.654279        0        
C1        C        0.0        0.351852        0.654279        0        
C2        C        0.03125        0.407408        0.654279        0        
C3        C        0.0        0.425925        0.654279        0        
C4        C        0.03125        0.37037        0.654279        0        
C1        C        0.0        0.46296300000000007        0.654279        0        
C2        C        0.03125        0.518519        0.654279        0        
C3        C        0.0        0.537037        0.654279        0        
C4        C        0.03125        0.481481        0.654279        0        
C1        C        0.0        0.574075        0.654279        0        
C2        C        0.03125        0.62963        0.654279        0        
C3        C        0.0        0.648148        0.654279        0        
C4        C        0.03125        0.592592        0.654279        0        
C1        C        0.0625        0.018519        0.654279        0        
C2        C        0.09375        0.074075        0.654279        0        
C3        C        0.0625        0.092592        0.654279        0        
C4        C        0.09375        0.037037        0.654279        0        
C1        C        0.0625        0.12963        0.654279        0        
C2        C        0.09375        0.185185        0.654279        0        
C3        C        0.0625        0.203703        0.654279        0        
C4        C        0.09375        0.148148        0.654279        0        
C1        C        0.0625        0.24074099999999998        0.654279        0        
C2        C        0.09375        0.296297        0.654279        0        
C3        C        0.0625        0.314815        0.654279        0        
C4        C        0.09375        0.259259        0.654279        0        
C1        C        0.0625        0.351852        0.654279        0        
C2        C        0.09375        0.407408        0.654279        0        
C3        C        0.0625        0.425925        0.654279        0        
C4        C        0.09375        0.37037        0.654279        0        
C1        C        0.0625        0.46296300000000007        0.654279        0        
C2        C        0.09375        0.518519        0.654279        0        
C3        C        0.0625        0.537037        0.654279        0        
C4        C        0.09375        0.481481        0.654279        0        
C1        C        0.0625        0.574075        0.654279        0        
C2        C        0.09375        0.62963        0.654279        0        
C3        C        0.0625        0.648148        0.654279        0        
C4        C        0.09375        0.592592        0.654279        0        
C1        C        0.125        0.018519        0.654279        0        
C2        C        0.15625        0.074075        0.654279        0        
C3        C        0.125        0.092592        0.654279        0        
C4        C        0.15625        0.037037        0.654279        0        
C1        C        0.125        0.12963        0.654279        0        
C2        C        0.15625        0.185185        0.654279        0        
C3        C        0.125        0.203703        0.654279        0        
C4        C        0.15625        0.148148        0.654279        0        
C1        C        0.125        0.24074099999999998        0.654279        0        
C2        C        0.15625        0.296297        0.654279        0        
C3        C        0.125        0.314815        0.654279        0        
C4        C        0.15625        0.259259        0.654279        0        
C1        C        0.125        0.351852        0.654279        0        
C2        C        0.15625        0.407408        0.654279        0        
C3        C        0.125        0.425925        0.654279        0        
C4        C        0.15625        0.37037        0.654279        0        
C1        C        0.125        0.46296300000000007        0.654279        0        
C2        C        0.15625        0.518519        0.654279        0        
C3        C        0.125        0.537037        0.654279        0        
C4        C        0.15625        0.481481        0.654279        0        
C1        C        0.125        0.574075        0.654279        0        
C2        C        0.15625        0.62963        0.654279        0        
C3        C        0.125        0.648148        0.654279        0        
C4        C        0.15625        0.592592        0.654279        0        
C1        C        0.1875        0.018519        0.654279        0        
C2        C        0.21875        0.074075        0.654279        0        
C3        C        0.1875        0.092592        0.654279        0        
C4        C        0.21875        0.037037        0.654279        0        
C1        C        0.1875        0.12963        0.654279        0        
C2        C        0.21875        0.185185        0.654279        0        
C3        C        0.1875        0.203703        0.654279        0        
C4        C        0.21875        0.148148        0.654279        0        
C1        C        0.1875        0.24074099999999998        0.654279        0        
C2        C        0.21875        0.296297        0.654279        0        
C3        C        0.1875        0.314815        0.654279        0        
C4        C        0.21875        0.259259        0.654279        0        
C1        C        0.1875        0.351852        0.654279        0        
C2        C        0.21875        0.407408        0.654279        0        
C3        C        0.1875        0.425925        0.654279        0        
C4        C        0.21875        0.37037        0.654279        0        
C1        C        0.1875        0.46296300000000007        0.654279        0        
C2        C        0.21875        0.518519        0.654279        0        
C3        C        0.1875        0.537037        0.654279        0        
C4        C        0.21875        0.481481        0.654279        0        
C1        C        0.1875        0.574075        0.654279        0        
C2        C        0.21875        0.62963        0.654279        0        
C3        C        0.1875        0.648148        0.654279        0        
C4        C        0.21875        0.592592        0.654279        0        
C1        C        0.25        0.018519        0.654279        0        
C2        C        0.28125        0.074075        0.654279        0        
C3        C        0.25        0.092592        0.654279        0        
C4        C        0.28125        0.037037        0.654279        0        
C1        C        0.25        0.12963        0.654279        0        
C2        C        0.28125        0.185185        0.654279        0        
C3        C        0.25        0.203703        0.654279        0        
C4        C        0.28125        0.148148        0.654279        0        
C1        C        0.25        0.24074099999999998        0.654279        0        
C2        C        0.28125        0.296297        0.654279        0        
C3        C        0.25        0.314815        0.654279        0        
C4        C        0.28125        0.259259        0.654279        0        
C1        C        0.25        0.351852        0.654279        0        
C2        C        0.28125        0.407408        0.654279        0        
C3        C        0.25        0.425925        0.654279        0        
C4        C        0.28125        0.37037        0.654279        0        
C1        C        0.25        0.46296300000000007        0.654279        0        
C2        C        0.28125        0.518519        0.654279        0        
C3        C        0.25        0.537037        0.654279        0        
C4        C        0.28125        0.481481        0.654279        0        
C1        C        0.25        0.574075        0.654279        0        
C2        C        0.28125        0.62963        0.654279        0        
C3        C        0.25        0.648148        0.654279        0        
C4        C        0.28125        0.592592        0.654279        0        
C1        C        0.3125        0.018519        0.654279        0        
C2        C        0.34375        0.074075        0.654279        0        
C3        C        0.3125        0.092592        0.654279        0        
C4        C        0.34375        0.037037        0.654279        0        
C1        C        0.3125        0.12963        0.654279        0        
C2        C        0.34375        0.185185        0.654279        0        
C3        C        0.3125        0.203703        0.654279        0        
C4        C        0.34375        0.148148        0.654279        0        
C1        C        0.3125        0.24074099999999998        0.654279        0        
C2        C        0.34375        0.296297        0.654279        0        
C3        C        0.3125        0.314815        0.654279        0        
C4        C        0.34375        0.259259        0.654279        0        
C1        C        0.3125        0.351852        0.654279        0        
C2        C        0.34375        0.407408        0.654279        0        
C3        C        0.3125        0.425925        0.654279        0        
C4        C        0.34375        0.37037        0.654279        0        
C1        C        0.3125        0.46296300000000007        0.654279        0        
C2        C        0.34375        0.518519        0.654279        0        
C3        C        0.3125        0.537037        0.654279        0        
C4        C        0.34375        0.481481        0.654279        0        
C1        C        0.3125        0.574075        0.654279        0        
C2        C        0.34375        0.62963        0.654279        0        
C3        C        0.3125        0.648148        0.654279        0        
C4        C        0.34375        0.592592        0.654279        0        
C1        C        0.375        0.018519        0.654279        0        
C2        C        0.40625        0.074075        0.654279        0        
C3        C        0.375        0.092592        0.654279        0        
C4        C        0.40625        0.037037        0.654279        0        
C1        C        0.375        0.12963        0.654279        0        
C2        C        0.40625        0.185185        0.654279        0        
C3        C        0.375        0.203703        0.654279        0        
C4        C        0.40625        0.148148        0.654279        0        
C1        C        0.375        0.24074099999999998        0.654279        0        
C2        C        0.40625        0.296297        0.654279        0        
C3        C        0.375        0.314815        0.654279        0        
C4        C        0.40625        0.259259        0.654279        0        
C1        C        0.375        0.351852        0.654279        0        
C2        C        0.40625        0.407408        0.654279        0        
C3        C        0.375        0.425925        0.654279        0        
C4        C        0.40625        0.37037        0.654279        0        
C1        C        0.375        0.46296300000000007        0.654279        0        
C2        C        0.40625        0.518519        0.654279        0        
C3        C        0.375        0.537037        0.654279        0        
C4        C        0.40625        0.481481        0.654279        0        
C1        C        0.375        0.574075        0.654279        0        
C2        C        0.40625        0.62963        0.654279        0        
C3        C        0.375        0.648148        0.654279        0        
C4        C        0.40625        0.592592        0.654279        0        
C1        C        0.4375        0.018519        0.654279        0        
C2        C        0.46875        0.074075        0.654279        0        
C3        C        0.4375        0.092592        0.654279        0        
C4        C        0.46875        0.037037        0.654279        0        
C1        C        0.4375        0.12963        0.654279        0        
C2        C        0.46875        0.185185        0.654279        0        
C3        C        0.4375        0.203703        0.654279        0        
C4        C        0.46875        0.148148        0.654279        0        
C1        C        0.4375        0.24074099999999998        0.654279        0        
C2        C        0.46875        0.296297        0.654279        0        
C3        C        0.4375        0.314815        0.654279        0        
C4        C        0.46875        0.259259        0.654279        0        
C1        C        0.4375        0.351852        0.654279        0        
C2        C        0.46875        0.407408        0.654279        0        
C3        C        0.4375        0.425925        0.654279        0        
C4        C        0.46875        0.37037        0.654279        0        
C1        C        0.4375        0.46296300000000007        0.654279        0        
C2        C        0.46875        0.518519        0.654279        0        
C3        C        0.4375        0.537037        0.654279        0        
C4        C        0.46875        0.481481        0.654279        0        
C1        C        0.4375        0.574075        0.654279        0        
C2        C        0.46875        0.62963        0.654279        0        
C3        C        0.4375        0.648148        0.654279        0        
C4        C        0.46875        0.592592        0.654279        0        
C1        C        0.5        0.018519        0.654279        0        
C2        C        0.53125        0.074075        0.654279        0        
C3        C        0.5        0.092592        0.654279        0        
C4        C        0.53125        0.037037        0.654279        0        
C1        C        0.5        0.12963        0.654279        0        
C2        C        0.53125        0.185185        0.654279        0        
C3        C        0.5        0.203703        0.654279        0        
C4        C        0.53125        0.148148        0.654279        0        
C1        C        0.5        0.24074099999999998        0.654279        0        
C2        C        0.53125        0.296297        0.654279        0        
C3        C        0.5        0.314815        0.654279        0        
C4        C        0.53125        0.259259        0.654279        0        
C1        C        0.5        0.351852        0.654279        0        
C2        C        0.53125        0.407408        0.654279        0        
C3        C        0.5        0.425925        0.654279        0        
C4        C        0.53125        0.37037        0.654279        0        
C1        C        0.5        0.46296300000000007        0.654279        0        
C2        C        0.53125        0.518519        0.654279        0        
C3        C        0.5        0.537037        0.654279        0        
C4        C        0.53125        0.481481        0.654279        0        
C1        C        0.5        0.574075        0.654279        0        
C2        C        0.53125        0.62963        0.654279        0        
C3        C        0.5        0.648148        0.654279        0        
C4        C        0.53125        0.592592        0.654279        0        
C1        C        0.5625        0.018519        0.654279        0        
C2        C        0.59375        0.074075        0.654279        0        
C3        C        0.5625        0.092592        0.654279        0        
C4        C        0.59375        0.037037        0.654279        0        
C1        C        0.5625        0.12963        0.654279        0        
C2        C        0.59375        0.185185        0.654279        0        
C3        C        0.5625        0.203703        0.654279        0        
C4        C        0.59375        0.148148        0.654279        0        
C1        C        0.5625        0.24074099999999998        0.654279        0        
C2        C        0.59375        0.296297        0.654279        0        
C3        C        0.5625        0.314815        0.654279        0        
C4        C        0.59375        0.259259        0.654279        0        
C1        C        0.5625        0.351852        0.654279        0        
C2        C        0.59375        0.407408        0.654279        0        
C3        C        0.5625        0.425925        0.654279        0        
C4        C        0.59375        0.37037        0.654279        0        
C1        C        0.5625        0.46296300000000007        0.654279        0        
C2        C        0.59375        0.518519        0.654279        0        
C3        C        0.5625        0.537037        0.654279        0        
C4        C        0.59375        0.481481        0.654279        0        
C1        C        0.5625        0.574075        0.654279        0        
C2        C        0.59375        0.62963        0.654279        0        
C3        C        0.5625        0.648148        0.654279        0        
C4        C        0.59375        0.592592        0.654279        0        
C1        C        0.625        0.018519        0.654279        0        
C2        C        0.65625        0.074075        0.654279        0        
C3        C        0.625        0.092592        0.654279        0        
C4        C        0.65625        0.037037        0.654279        0        
C1        C        0.625        0.12963        0.654279        0        
C2        C        0.65625        0.185185        0.654279        0        
C3        C        0.625        0.203703        0.654279        0        
C4        C        0.65625        0.148148        0.654279        0        
C1        C        0.625        0.24074099999999998        0.654279        0        
C2        C        0.65625        0.296297        0.654279        0        
C3        C        0.625        0.314815        0.654279        0        
C4        C        0.65625        0.259259        0.654279        0        
C1        C        0.625        0.351852        0.654279        0        
C2        C        0.65625        0.407408        0.654279        0        
C3        C        0.625        0.425925        0.654279        0        
C4        C        0.65625        0.37037        0.654279        0        
C1        C        0.625        0.46296300000000007        0.654279        0        
C2        C        0.65625        0.518519        0.654279        0        
C3        C        0.625        0.537037        0.654279        0        
C4        C        0.65625        0.481481        0.654279        0        
C1        C        0.625        0.574075        0.654279        0        
C2        C        0.65625        0.62963        0.654279        0        
C3        C        0.625        0.648148        0.654279        0        
C4        C        0.65625        0.592592        0.654279        0        
C1        C        0.6875        0.018519        0.654279        0        
C2        C        0.71875        0.074075        0.654279        0        
C3        C        0.6875        0.092592        0.654279        0        
C4        C        0.71875        0.037037        0.654279        0        
C1        C        0.6875        0.12963        0.654279        0        
C2        C        0.71875        0.185185        0.654279        0        
C3        C        0.6875        0.203703        0.654279        0        
C4        C        0.71875        0.148148        0.654279        0        
C1        C        0.6875        0.24074099999999998        0.654279        0        
C2        C        0.71875        0.296297        0.654279        0        
C3        C        0.6875        0.314815        0.654279        0        
C4        C        0.71875        0.259259        0.654279        0        
C1        C        0.6875        0.351852        0.654279        0        
C2        C        0.71875        0.407408        0.654279        0        
C3        C        0.6875        0.425925        0.654279        0        
C4        C        0.71875        0.37037        0.654279        0        
C1        C        0.6875        0.46296300000000007        0.654279        0        
C2        C        0.71875        0.518519        0.654279        0        
C3        C        0.6875        0.537037        0.654279        0        
C4        C        0.71875        0.481481        0.654279        0        
C1        C        0.6875        0.574075        0.654279        0        
C2        C        0.71875        0.62963        0.654279        0        
C3        C        0.6875        0.648148        0.654279        0        
C4        C        0.71875        0.592592        0.654279        0        
C1        C        0.75        0.018519        0.654279        0        
C2        C        0.78125        0.074075        0.654279        0        
C3        C        0.75        0.092592        0.654279        0        
C4        C        0.78125        0.037037        0.654279        0        
C1        C        0.75        0.12963        0.654279        0        
C2        C        0.78125        0.185185        0.654279        0        
C3        C        0.75        0.203703        0.654279        0        
C4        C        0.78125        0.148148        0.654279        0        
C1        C        0.75        0.24074099999999998        0.654279        0        
C2        C        0.78125        0.296297        0.654279        0        
C3        C        0.75        0.314815        0.654279        0        
C4        C        0.78125        0.259259        0.654279        0        
C1        C        0.75        0.351852        0.654279        0        
C2        C        0.78125        0.407408        0.654279        0        
C3        C        0.75        0.425925        0.654279        0        
C4        C        0.78125        0.37037        0.654279        0        
C1        C        0.75        0.46296300000000007        0.654279        0        
C2        C        0.78125        0.518519        0.654279        0        
C3        C        0.75        0.537037        0.654279        0        
C4        C        0.78125        0.481481        0.654279        0        
C1        C        0.75        0.574075        0.654279        0        
C2        C        0.78125        0.62963        0.654279        0        
C3        C        0.75        0.648148        0.654279        0        
C4        C        0.78125        0.592592        0.654279        0        
C1        C        0.8125        0.018519        0.654279        0        
C2        C        0.84375        0.074075        0.654279        0        
C3        C        0.8125        0.092592        0.654279        0        
C4        C        0.84375        0.037037        0.654279        0        
C1        C        0.8125        0.12963        0.654279        0        
C2        C        0.84375        0.185185        0.654279        0        
C3        C        0.8125        0.203703        0.654279        0        
C4        C        0.84375        0.148148        0.654279        0        
C1        C        0.8125        0.24074099999999998        0.654279        0        
C2        C        0.84375        0.296297        0.654279        0        
C3        C        0.8125        0.314815        0.654279        0        
C4        C        0.84375        0.259259        0.654279        0        
C1        C        0.8125        0.351852        0.654279        0        
C2        C        0.84375        0.407408        0.654279        0        
C3        C        0.8125        0.425925        0.654279        0        
C4        C        0.84375        0.37037        0.654279        0        
C1        C        0.8125        0.46296300000000007        0.654279        0        
C2        C        0.84375        0.518519        0.654279        0        
C3        C        0.8125        0.537037        0.654279        0        
C4        C        0.84375        0.481481        0.654279        0        
C1        C        0.8125        0.574075        0.654279        0        
C2        C        0.84375        0.62963        0.654279        0        
C3        C        0.8125        0.648148        0.654279        0        
C4        C        0.84375        0.592592        0.654279        0        
C1        C        0.875        0.018519        0.654279        0        
C2        C        0.9062500000000001        0.074075        0.654279        0        
C3        C        0.875        0.092592        0.654279        0        
C4        C        0.9062500000000001        0.037037        0.654279        0        
C1        C        0.875        0.12963        0.654279        0        
C2        C        0.9062500000000001        0.185185        0.654279        0        
C3        C        0.875        0.203703        0.654279        0        
C4        C        0.9062500000000001        0.148148        0.654279        0        
C1        C        0.875        0.24074099999999998        0.654279        0        
C2        C        0.9062500000000001        0.296297        0.654279        0        
C3        C        0.875        0.314815        0.654279        0        
C4        C        0.9062500000000001        0.259259        0.654279        0        
C1        C        0.875        0.351852        0.654279        0        
C2        C        0.9062500000000001        0.407408        0.654279        0        
C3        C        0.875        0.425925        0.654279        0        
C4        C        0.9062500000000001        0.37037        0.654279        0        
C1        C        0.875        0.46296300000000007        0.654279        0        
C2        C        0.9062500000000001        0.518519        0.654279        0        
C3        C        0.875        0.537037        0.654279        0        
C4        C        0.9062500000000001        0.481481        0.654279        0        
C1        C        0.875        0.574075        0.654279        0        
C2        C        0.9062500000000001        0.62963        0.654279        0        
C3        C        0.875        0.648148        0.654279        0        
C4        C        0.9062500000000001        0.592592        0.654279        0        
C1        C        0.9375        0.018519        0.654279        0        
C2        C        0.9687500000000001        0.074075        0.654279        0        
C3        C        0.9375        0.092592        0.654279        0        
C4        C        0.9687500000000001        0.037037        0.654279        0        
C1        C        0.9375        0.12963        0.654279        0        
C2        C        0.9687500000000001        0.185185        0.654279        0        
C3        C        0.9375        0.203703        0.654279        0        
C4        C        0.9687500000000001        0.148148        0.654279        0        
C1        C        0.9375        0.24074099999999998        0.654279        0        
C2        C        0.9687500000000001        0.296297        0.654279        0        
C3        C        0.9375        0.314815        0.654279        0        
C4        C        0.9687500000000001        0.259259        0.654279        0        
C1        C        0.9375        0.351852        0.654279        0        
C2        C        0.9687500000000001        0.407408        0.654279        0        
C3        C        0.9375        0.425925        0.654279        0        
C4        C        0.9687500000000001        0.37037        0.654279        0        
C1        C        0.9375        0.46296300000000007        0.654279        0        
C2        C        0.9687500000000001        0.518519        0.654279        0        
C3        C        0.9375        0.537037        0.654279        0        
C4        C        0.9687500000000001        0.481481        0.654279        0        
C1        C        0.9375        0.574075        0.654279        0        
C2        C        0.9687500000000001        0.62963        0.654279        0        
C3        C        0.9375        0.648148        0.654279        0        
C4        C        0.9687500000000001        0.592592        0.654279        0        
C1        C        0.0        0.685186        0.654279        0        
C1        C        0.0625        0.685186        0.654279        0        
C1        C        0.125        0.685186        0.654279        0        
C1        C        0.1875        0.685186        0.654279        0        
C1        C        0.25        0.685186        0.654279        0        
C1        C        0.3125        0.685186        0.654279        0        
C1        C        0.375        0.685186        0.654279        0        
C1        C        0.4375        0.685186        0.654279        0        
C1        C        0.5        0.685186        0.654279        0        
C1        C        0.5625        0.685186        0.654279        0        
C1        C        0.625        0.685186        0.654279        0        
C1        C        0.6875        0.685186        0.654279        0        
C1        C        0.75        0.685186        0.654279        0        
C1        C        0.8125        0.685186        0.654279        0        
C1        C        0.875        0.685186        0.654279        0        
C1        C        0.9375        0.685186        0.654279        0        
C2        C        0.03125        0.740741        0.654279        0        
C2        C        0.09375        0.740741        0.654279        0        
C2        C        0.15625        0.740741        0.654279        0        
C2        C        0.21875        0.740741        0.654279        0        
C2        C        0.28125        0.740741        0.654279        0        
C2        C        0.34375        0.740741        0.654279        0        
C2        C        0.40625        0.740741        0.654279        0        
C2        C        0.46875        0.740741        0.654279        0        
C2        C        0.53125        0.740741        0.654279        0        
C2        C        0.59375        0.740741        0.654279        0        
C2        C        0.65625        0.740741        0.654279        0        
C2        C        0.71875        0.740741        0.654279        0        
C2        C        0.78125        0.740741        0.654279        0        
C2        C        0.84375        0.740741        0.654279        0        
C2        C        0.9062500000000001        0.740741        0.654279        0        
C2        C        0.9687500000000001        0.740741        0.654279        0        
C3        C        0.0        0.759259        0.654279        0        
C3        C        0.0625        0.759259        0.654279        0        
C3        C        0.125        0.759259        0.654279        0        
C3        C        0.1875        0.759259        0.654279        0        
C3        C        0.25        0.759259        0.654279        0        
C3        C        0.3125        0.759259        0.654279        0        
C3        C        0.375        0.759259        0.654279        0        
C3        C        0.4375        0.759259        0.654279        0        
C3        C        0.5        0.759259        0.654279        0        
C3        C        0.5625        0.759259        0.654279        0        
C3        C        0.625        0.759259        0.654279        0        
C3        C        0.6875        0.759259        0.654279        0        
C3        C        0.75        0.759259        0.654279        0        
C3        C        0.8125        0.759259        0.654279        0        
C3        C        0.875        0.759259        0.654279        0        
C3        C        0.9375        0.759259        0.654279        0        
C4        C        0.03125        0.703703        0.654279        0        
C4        C        0.09375        0.703703        0.654279        0        
C4        C        0.15625        0.703703        0.654279        0        
C4        C        0.21875        0.703703        0.654279        0        
C4        C        0.28125        0.703703        0.654279        0        
C4        C        0.34375        0.703703        0.654279        0        
C4        C        0.40625        0.703703        0.654279        0        
C4        C        0.46875        0.703703        0.654279        0        
C4        C        0.53125        0.703703        0.654279        0        
C4        C        0.59375        0.703703        0.654279        0        
C4        C        0.65625        0.703703        0.654279        0        
C4        C        0.71875        0.703703        0.654279        0        
C4        C        0.78125        0.703703        0.654279        0        
C4        C        0.84375        0.703703        0.654279        0        
C4        C        0.9062500000000001        0.703703        0.654279        0        
C4        C        0.9687500000000001        0.703703        0.654279        0        
C1        C        0.0        0.796297        0.654279        0        
C1        C        0.0625        0.796297        0.654279        0        
C1        C        0.125        0.796297        0.654279        0        
C1        C        0.1875        0.796297        0.654279        0        
C1        C        0.25        0.796297        0.654279        0        
C1        C        0.3125        0.796297        0.654279        0        
C1        C        0.375        0.796297        0.654279        0        
C1        C        0.4375        0.796297        0.654279        0        
C1        C        0.5        0.796297        0.654279        0        
C1        C        0.5625        0.796297        0.654279        0        
C1        C        0.625        0.796297        0.654279        0        
C1        C        0.6875        0.796297        0.654279        0        
C1        C        0.75        0.796297        0.654279        0        
C1        C        0.8125        0.796297        0.654279        0        
C1        C        0.875        0.796297        0.654279        0        
C1        C        0.9375        0.796297        0.654279        0        
C2        C        0.03125        0.851852        0.654279        0        
C2        C        0.09375        0.851852        0.654279        0        
C2        C        0.15625        0.851852        0.654279        0        
C2        C        0.21875        0.851852        0.654279        0        
C2        C        0.28125        0.851852        0.654279        0        
C2        C        0.34375        0.851852        0.654279        0        
C2        C        0.40625        0.851852        0.654279        0        
C2        C        0.46875        0.851852        0.654279        0        
C2        C        0.53125        0.851852        0.654279        0        
C2        C        0.59375        0.851852        0.654279        0        
C2        C        0.65625        0.851852        0.654279        0        
C2        C        0.71875        0.851852        0.654279        0        
C2        C        0.78125        0.851852        0.654279        0        
C2        C        0.84375        0.851852        0.654279        0        
C2        C        0.9062500000000001        0.851852        0.654279        0        
C2        C        0.9687500000000001        0.851852        0.654279        0        
C3        C        0.0        0.87037        0.654279        0        
C3        C        0.0625        0.87037        0.654279        0        
C3        C        0.125        0.87037        0.654279        0        
C3        C        0.1875        0.87037        0.654279        0        
C3        C        0.25        0.87037        0.654279        0        
C3        C        0.3125        0.87037        0.654279        0        
C3        C        0.375        0.87037        0.654279        0        
C3        C        0.4375        0.87037        0.654279        0        
C3        C        0.5        0.87037        0.654279        0        
C3        C        0.5625        0.87037        0.654279        0        
C3        C        0.625        0.87037        0.654279        0        
C3        C        0.6875        0.87037        0.654279        0        
C3        C        0.75        0.87037        0.654279        0        
C3        C        0.8125        0.87037        0.654279        0        
C3        C        0.875        0.87037        0.654279        0        
C3        C        0.9375        0.87037        0.654279        0        
C4        C        0.03125        0.814814        0.654279        0        
C4        C        0.09375        0.814814        0.654279        0        
C4        C        0.15625        0.814814        0.654279        0        
C4        C        0.21875        0.814814        0.654279        0        
C4        C        0.28125        0.814814        0.654279        0        
C4        C        0.34375        0.814814        0.654279        0        
C4        C        0.40625        0.814814        0.654279        0        
C4        C        0.46875        0.814814        0.654279        0        
C4        C        0.53125        0.814814        0.654279        0        
C4        C        0.59375        0.814814        0.654279        0        
C4        C        0.65625        0.814814        0.654279        0        
C4        C        0.71875        0.814814        0.654279        0        
C4        C        0.78125        0.814814        0.654279        0        
C4        C        0.84375        0.814814        0.654279        0        
C4        C        0.9062500000000001        0.814814        0.654279        0        
C4        C        0.9687500000000001        0.814814        0.654279        0        
C1        C        0.0        0.907408        0.654279        0        
C1        C        0.0625        0.907408        0.654279        0        
C1        C        0.125        0.907408        0.654279        0        
C1        C        0.1875        0.907408        0.654279        0        
C1        C        0.25        0.907408        0.654279        0        
C1        C        0.3125        0.907408        0.654279        0        
C1        C        0.375        0.907408        0.654279        0        
C1        C        0.4375        0.907408        0.654279        0        
C1        C        0.5        0.907408        0.654279        0        
C1        C        0.5625        0.907408        0.654279        0        
C1        C        0.625        0.907408        0.654279        0        
C1        C        0.6875        0.907408        0.654279        0        
C1        C        0.75        0.907408        0.654279        0        
C1        C        0.8125        0.907408        0.654279        0        
C1        C        0.875        0.907408        0.654279        0        
C1        C        0.9375        0.907408        0.654279        0        
C2        C        0.03125        0.962963        0.654279        0        
C2        C        0.09375        0.962963        0.654279        0        
C2        C        0.15625        0.962963        0.654279        0        
C2        C        0.21875        0.962963        0.654279        0        
C2        C        0.28125        0.962963        0.654279        0        
C2        C        0.34375        0.962963        0.654279        0        
C2        C        0.40625        0.962963        0.654279        0        
C2        C        0.46875        0.962963        0.654279        0        
C2        C        0.53125        0.962963        0.654279        0        
C2        C        0.59375        0.962963        0.654279        0        
C2        C        0.65625        0.962963        0.654279        0        
C2        C        0.71875        0.962963        0.654279        0        
C2        C        0.78125        0.962963        0.654279        0        
C2        C        0.84375        0.962963        0.654279        0        
C2        C        0.9062500000000001        0.962963        0.654279        0        
C2        C        0.9687500000000001        0.962963        0.654279        0        
C3        C        0.0        0.9814809999999999        0.654279        0        
C3        C        0.0625        0.9814809999999999        0.654279        0        
C3        C        0.125        0.9814809999999999        0.654279        0        
C3        C        0.1875        0.9814809999999999        0.654279        0        
C3        C        0.25        0.9814809999999999        0.654279        0        
C3        C        0.3125        0.9814809999999999        0.654279        0        
C3        C        0.375        0.9814809999999999        0.654279        0        
C3        C        0.4375        0.9814809999999999        0.654279        0        
C3        C        0.5        0.9814809999999999        0.654279        0        
C3        C        0.5625        0.9814809999999999        0.654279        0        
C3        C        0.625        0.9814809999999999        0.654279        0        
C3        C        0.6875        0.9814809999999999        0.654279        0        
C3        C        0.75        0.9814809999999999        0.654279        0        
C3        C        0.8125        0.9814809999999999        0.654279        0        
C3        C        0.875        0.9814809999999999        0.654279        0        
C3        C        0.9375        0.9814809999999999        0.654279        0        
C4        C        0.03125        0.925925        0.654279        0        
C4        C        0.09375        0.925925        0.654279        0        
C4        C        0.15625        0.925925        0.654279        0        
C4        C        0.21875        0.925925        0.654279        0        
C4        C        0.28125        0.925925        0.654279        0        
C4        C        0.34375        0.925925        0.654279        0        
C4        C        0.40625        0.925925        0.654279        0        
C4        C        0.46875        0.925925        0.654279        0        
C4        C        0.53125        0.925925        0.654279        0        
C4        C        0.59375        0.925925        0.654279        0        
C4        C        0.65625        0.925925        0.654279        0        
C4        C        0.71875        0.925925        0.654279        0        
C4        C        0.78125        0.925925        0.654279        0        
C4        C        0.84375        0.925925        0.654279        0        
C4        C        0.9062500000000001        0.925925        0.654279        0        
C4        C        0.9687500000000001        0.925925        0.654279        0        
C1        C        0.0        0.018519        0.72973        0        
C2        C        0.03125        0.074075        0.72973        0        
C3        C        0.0        0.092592        0.72973        0        
C4        C        0.03125        0.037037        0.72973        0        
C1        C        0.0        0.12963        0.72973        0        
C2        C        0.03125        0.185185        0.72973        0        
C3        C        0.0        0.203703        0.72973        0        
C4        C        0.03125        0.148148        0.72973        0        
C1        C        0.0        0.24074099999999998        0.72973        0        
C2        C        0.03125        0.296297        0.72973        0        
C3        C        0.0        0.314815        0.72973        0        
C4        C        0.03125        0.259259        0.72973        0        
C1        C        0.0        0.351852        0.72973        0        
C2        C        0.03125        0.407408        0.72973        0        
C3        C        0.0        0.425925        0.72973        0        
C4        C        0.03125        0.37037        0.72973        0        
C1        C        0.0        0.46296300000000007        0.72973        0        
C2        C        0.03125        0.518519        0.72973        0        
C3        C        0.0        0.537037        0.72973        0        
C4        C        0.03125        0.481481        0.72973        0        
C1        C        0.0        0.574075        0.72973        0        
C2        C        0.03125        0.62963        0.72973        0        
C3        C        0.0        0.648148        0.72973        0        
C4        C        0.03125        0.592592        0.72973        0        
C1        C        0.0625        0.018519        0.72973        0        
C2        C        0.09375        0.074075        0.72973        0        
C3        C        0.0625        0.092592        0.72973        0        
C4        C        0.09375        0.037037        0.72973        0        
C1        C        0.0625        0.12963        0.72973        0        
C2        C        0.09375        0.185185        0.72973        0        
C3        C        0.0625        0.203703        0.72973        0        
C4        C        0.09375        0.148148        0.72973        0        
C1        C        0.0625        0.24074099999999998        0.72973        0        
C2        C        0.09375        0.296297        0.72973        0        
C3        C        0.0625        0.314815        0.72973        0        
C4        C        0.09375        0.259259        0.72973        0        
C1        C        0.0625        0.351852        0.72973        0        
C2        C        0.09375        0.407408        0.72973        0        
C3        C        0.0625        0.425925        0.72973        0        
C4        C        0.09375        0.37037        0.72973        0        
C1        C        0.0625        0.46296300000000007        0.72973        0        
C2        C        0.09375        0.518519        0.72973        0        
C3        C        0.0625        0.537037        0.72973        0        
C4        C        0.09375        0.481481        0.72973        0        
C1        C        0.0625        0.574075        0.72973        0        
C2        C        0.09375        0.62963        0.72973        0        
C3        C        0.0625        0.648148        0.72973        0        
C4        C        0.09375        0.592592        0.72973        0        
C1        C        0.125        0.018519        0.72973        0        
C2        C        0.15625        0.074075        0.72973        0        
C3        C        0.125        0.092592        0.72973        0        
C4        C        0.15625        0.037037        0.72973        0        
C1        C        0.125        0.12963        0.72973        0        
C2        C        0.15625        0.185185        0.72973        0        
C3        C        0.125        0.203703        0.72973        0        
C4        C        0.15625        0.148148        0.72973        0        
C1        C        0.125        0.24074099999999998        0.72973        0        
C2        C        0.15625        0.296297        0.72973        0        
C3        C        0.125        0.314815        0.72973        0        
C4        C        0.15625        0.259259        0.72973        0        
C1        C        0.125        0.351852        0.72973        0        
C2        C        0.15625        0.407408        0.72973        0        
C3        C        0.125        0.425925        0.72973        0        
C4        C        0.15625        0.37037        0.72973        0        
C1        C        0.125        0.46296300000000007        0.72973        0        
C2        C        0.15625        0.518519        0.72973        0        
C3        C        0.125        0.537037        0.72973        0        
C4        C        0.15625        0.481481        0.72973        0        
C1        C        0.125        0.574075        0.72973        0        
C2        C        0.15625        0.62963        0.72973        0        
C3        C        0.125        0.648148        0.72973        0        
C4        C        0.15625        0.592592        0.72973        0        
C1        C        0.1875        0.018519        0.72973        0        
C2        C        0.21875        0.074075        0.72973        0        
C3        C        0.1875        0.092592        0.72973        0        
C4        C        0.21875        0.037037        0.72973        0        
C1        C        0.1875        0.12963        0.72973        0        
C2        C        0.21875        0.185185        0.72973        0        
C3        C        0.1875        0.203703        0.72973        0        
C4        C        0.21875        0.148148        0.72973        0        
C1        C        0.1875        0.24074099999999998        0.72973        0        
C2        C        0.21875        0.296297        0.72973        0        
C3        C        0.1875        0.314815        0.72973        0        
C4        C        0.21875        0.259259        0.72973        0        
C1        C        0.1875        0.351852        0.72973        0        
C2        C        0.21875        0.407408        0.72973        0        
C3        C        0.1875        0.425925        0.72973        0        
C4        C        0.21875        0.37037        0.72973        0        
C1        C        0.1875        0.46296300000000007        0.72973        0        
C2        C        0.21875        0.518519        0.72973        0        
C3        C        0.1875        0.537037        0.72973        0        
C4        C        0.21875        0.481481        0.72973        0        
C1        C        0.1875        0.574075        0.72973        0        
C2        C        0.21875        0.62963        0.72973        0        
C3        C        0.1875        0.648148        0.72973        0        
C4        C        0.21875        0.592592        0.72973        0        
C1        C        0.25        0.018519        0.72973        0        
C2        C        0.28125        0.074075        0.72973        0        
C3        C        0.25        0.092592        0.72973        0        
C4        C        0.28125        0.037037        0.72973        0        
C1        C        0.25        0.12963        0.72973        0        
C2        C        0.28125        0.185185        0.72973        0        
C3        C        0.25        0.203703        0.72973        0        
C4        C        0.28125        0.148148        0.72973        0        
C1        C        0.25        0.24074099999999998        0.72973        0        
C2        C        0.28125        0.296297        0.72973        0        
C3        C        0.25        0.314815        0.72973        0        
C4        C        0.28125        0.259259        0.72973        0        
C1        C        0.25        0.351852        0.72973        0        
C2        C        0.28125        0.407408        0.72973        0        
C3        C        0.25        0.425925        0.72973        0        
C4        C        0.28125        0.37037        0.72973        0        
C1        C        0.25        0.46296300000000007        0.72973        0        
C2        C        0.28125        0.518519        0.72973        0        
C3        C        0.25        0.537037        0.72973        0        
C4        C        0.28125        0.481481        0.72973        0        
C1        C        0.25        0.574075        0.72973        0        
C2        C        0.28125        0.62963        0.72973        0        
C3        C        0.25        0.648148        0.72973        0        
C4        C        0.28125        0.592592        0.72973        0        
C1        C        0.3125        0.018519        0.72973        0        
C2        C        0.34375        0.074075        0.72973        0        
C3        C        0.3125        0.092592        0.72973        0        
C4        C        0.34375        0.037037        0.72973        0        
C1        C        0.3125        0.12963        0.72973        0        
C2        C        0.34375        0.185185        0.72973        0        
C3        C        0.3125        0.203703        0.72973        0        
C4        C        0.34375        0.148148        0.72973        0        
C1        C        0.3125        0.24074099999999998        0.72973        0        
C2        C        0.34375        0.296297        0.72973        0        
C3        C        0.3125        0.314815        0.72973        0        
C4        C        0.34375        0.259259        0.72973        0        
C1        C        0.3125        0.351852        0.72973        0        
C2        C        0.34375        0.407408        0.72973        0        
C3        C        0.3125        0.425925        0.72973        0        
C4        C        0.34375        0.37037        0.72973        0        
C1        C        0.3125        0.46296300000000007        0.72973        0        
C2        C        0.34375        0.518519        0.72973        0        
C3        C        0.3125        0.537037        0.72973        0        
C4        C        0.34375        0.481481        0.72973        0        
C1        C        0.3125        0.574075        0.72973        0        
C2        C        0.34375        0.62963        0.72973        0        
C3        C        0.3125        0.648148        0.72973        0        
C4        C        0.34375        0.592592        0.72973        0        
C1        C        0.375        0.018519        0.72973        0        
C2        C        0.40625        0.074075        0.72973        0        
C3        C        0.375        0.092592        0.72973        0        
C4        C        0.40625        0.037037        0.72973        0        
C1        C        0.375        0.12963        0.72973        0        
C2        C        0.40625        0.185185        0.72973        0        
C3        C        0.375        0.203703        0.72973        0        
C4        C        0.40625        0.148148        0.72973        0        
C1        C        0.375        0.24074099999999998        0.72973        0        
C2        C        0.40625        0.296297        0.72973        0        
C3        C        0.375        0.314815        0.72973        0        
C4        C        0.40625        0.259259        0.72973        0        
C1        C        0.375        0.351852        0.72973        0        
C2        C        0.40625        0.407408        0.72973        0        
C3        C        0.375        0.425925        0.72973        0        
C4        C        0.40625        0.37037        0.72973        0        
C1        C        0.375        0.46296300000000007        0.72973        0        
C2        C        0.40625        0.518519        0.72973        0        
C3        C        0.375        0.537037        0.72973        0        
C4        C        0.40625        0.481481        0.72973        0        
C1        C        0.375        0.574075        0.72973        0        
C2        C        0.40625        0.62963        0.72973        0        
C3        C        0.375        0.648148        0.72973        0        
C4        C        0.40625        0.592592        0.72973        0        
C1        C        0.4375        0.018519        0.72973        0        
C2        C        0.46875        0.074075        0.72973        0        
C3        C        0.4375        0.092592        0.72973        0        
C4        C        0.46875        0.037037        0.72973        0        
C1        C        0.4375        0.12963        0.72973        0        
C2        C        0.46875        0.185185        0.72973        0        
C3        C        0.4375        0.203703        0.72973        0        
C4        C        0.46875        0.148148        0.72973        0        
C1        C        0.4375        0.24074099999999998        0.72973        0        
C2        C        0.46875        0.296297        0.72973        0        
C3        C        0.4375        0.314815        0.72973        0        
C4        C        0.46875        0.259259        0.72973        0        
C1        C        0.4375        0.351852        0.72973        0        
C2        C        0.46875        0.407408        0.72973        0        
C3        C        0.4375        0.425925        0.72973        0        
C4        C        0.46875        0.37037        0.72973        0        
C1        C        0.4375        0.46296300000000007        0.72973        0        
C2        C        0.46875        0.518519        0.72973        0        
C3        C        0.4375        0.537037        0.72973        0        
C4        C        0.46875        0.481481        0.72973        0        
C1        C        0.4375        0.574075        0.72973        0        
C2        C        0.46875        0.62963        0.72973        0        
C3        C        0.4375        0.648148        0.72973        0        
C4        C        0.46875        0.592592        0.72973        0        
C1        C        0.5        0.018519        0.72973        0        
C2        C        0.53125        0.074075        0.72973        0        
C3        C        0.5        0.092592        0.72973        0        
C4        C        0.53125        0.037037        0.72973        0        
C1        C        0.5        0.12963        0.72973        0        
C2        C        0.53125        0.185185        0.72973        0        
C3        C        0.5        0.203703        0.72973        0        
C4        C        0.53125        0.148148        0.72973        0        
C1        C        0.5        0.24074099999999998        0.72973        0        
C2        C        0.53125        0.296297        0.72973        0        
C3        C        0.5        0.314815        0.72973        0        
C4        C        0.53125        0.259259        0.72973        0        
C1        C        0.5        0.351852        0.72973        0        
C2        C        0.53125        0.407408        0.72973        0        
C3        C        0.5        0.425925        0.72973        0        
C4        C        0.53125        0.37037        0.72973        0        
C1        C        0.5        0.46296300000000007        0.72973        0        
C2        C        0.53125        0.518519        0.72973        0        
C3        C        0.5        0.537037        0.72973        0        
C4        C        0.53125        0.481481        0.72973        0        
C1        C        0.5        0.574075        0.72973        0        
C2        C        0.53125        0.62963        0.72973        0        
C3        C        0.5        0.648148        0.72973        0        
C4        C        0.53125        0.592592        0.72973        0        
C1        C        0.5625        0.018519        0.72973        0        
C2        C        0.59375        0.074075        0.72973        0        
C3        C        0.5625        0.092592        0.72973        0        
C4        C        0.59375        0.037037        0.72973        0        
C1        C        0.5625        0.12963        0.72973        0        
C2        C        0.59375        0.185185        0.72973        0        
C3        C        0.5625        0.203703        0.72973        0        
C4        C        0.59375        0.148148        0.72973        0        
C1        C        0.5625        0.24074099999999998        0.72973        0        
C2        C        0.59375        0.296297        0.72973        0        
C3        C        0.5625        0.314815        0.72973        0        
C4        C        0.59375        0.259259        0.72973        0        
C1        C        0.5625        0.351852        0.72973        0        
C2        C        0.59375        0.407408        0.72973        0        
C3        C        0.5625        0.425925        0.72973        0        
C4        C        0.59375        0.37037        0.72973        0        
C1        C        0.5625        0.46296300000000007        0.72973        0        
C2        C        0.59375        0.518519        0.72973        0        
C3        C        0.5625        0.537037        0.72973        0        
C4        C        0.59375        0.481481        0.72973        0        
C1        C        0.5625        0.574075        0.72973        0        
C2        C        0.59375        0.62963        0.72973        0        
C3        C        0.5625        0.648148        0.72973        0        
C4        C        0.59375        0.592592        0.72973        0        
C1        C        0.625        0.018519        0.72973        0        
C2        C        0.65625        0.074075        0.72973        0        
C3        C        0.625        0.092592        0.72973        0        
C4        C        0.65625        0.037037        0.72973        0        
C1        C        0.625        0.12963        0.72973        0        
C2        C        0.65625        0.185185        0.72973        0        
C3        C        0.625        0.203703        0.72973        0        
C4        C        0.65625        0.148148        0.72973        0        
C1        C        0.625        0.24074099999999998        0.72973        0        
C2        C        0.65625        0.296297        0.72973        0        
C3        C        0.625        0.314815        0.72973        0        
C4        C        0.65625        0.259259        0.72973        0        
C1        C        0.625        0.351852        0.72973        0        
C2        C        0.65625        0.407408        0.72973        0        
C3        C        0.625        0.425925        0.72973        0        
C4        C        0.65625        0.37037        0.72973        0        
C1        C        0.625        0.46296300000000007        0.72973        0        
C2        C        0.65625        0.518519        0.72973        0        
C3        C        0.625        0.537037        0.72973        0        
C4        C        0.65625        0.481481        0.72973        0        
C1        C        0.625        0.574075        0.72973        0        
C2        C        0.65625        0.62963        0.72973        0        
C3        C        0.625        0.648148        0.72973        0        
C4        C        0.65625        0.592592        0.72973        0        
C1        C        0.6875        0.018519        0.72973        0        
C2        C        0.71875        0.074075        0.72973        0        
C3        C        0.6875        0.092592        0.72973        0        
C4        C        0.71875        0.037037        0.72973        0        
C1        C        0.6875        0.12963        0.72973        0        
C2        C        0.71875        0.185185        0.72973        0        
C3        C        0.6875        0.203703        0.72973        0        
C4        C        0.71875        0.148148        0.72973        0        
C1        C        0.6875        0.24074099999999998        0.72973        0        
C2        C        0.71875        0.296297        0.72973        0        
C3        C        0.6875        0.314815        0.72973        0        
C4        C        0.71875        0.259259        0.72973        0        
C1        C        0.6875        0.351852        0.72973        0        
C2        C        0.71875        0.407408        0.72973        0        
C3        C        0.6875        0.425925        0.72973        0        
C4        C        0.71875        0.37037        0.72973        0        
C1        C        0.6875        0.46296300000000007        0.72973        0        
C2        C        0.71875        0.518519        0.72973        0        
C3        C        0.6875        0.537037        0.72973        0        
C4        C        0.71875        0.481481        0.72973        0        
C1        C        0.6875        0.574075        0.72973        0        
C2        C        0.71875        0.62963        0.72973        0        
C3        C        0.6875        0.648148        0.72973        0        
C4        C        0.71875        0.592592        0.72973        0        
C1        C        0.75        0.018519        0.72973        0        
C2        C        0.78125        0.074075        0.72973        0        
C3        C        0.75        0.092592        0.72973        0        
C4        C        0.78125        0.037037        0.72973        0        
C1        C        0.75        0.12963        0.72973        0        
C2        C        0.78125        0.185185        0.72973        0        
C3        C        0.75        0.203703        0.72973        0        
C4        C        0.78125        0.148148        0.72973        0        
C1        C        0.75        0.24074099999999998        0.72973        0        
C2        C        0.78125        0.296297        0.72973        0        
C3        C        0.75        0.314815        0.72973        0        
C4        C        0.78125        0.259259        0.72973        0        
C1        C        0.75        0.351852        0.72973        0        
C2        C        0.78125        0.407408        0.72973        0        
C3        C        0.75        0.425925        0.72973        0        
C4        C        0.78125        0.37037        0.72973        0        
C1        C        0.75        0.46296300000000007        0.72973        0        
C2        C        0.78125        0.518519        0.72973        0        
C3        C        0.75        0.537037        0.72973        0        
C4        C        0.78125        0.481481        0.72973        0        
C1        C        0.75        0.574075        0.72973        0        
C2        C        0.78125        0.62963        0.72973        0        
C3        C        0.75        0.648148        0.72973        0        
C4        C        0.78125        0.592592        0.72973        0        
C1        C        0.8125        0.018519        0.72973        0        
C2        C        0.84375        0.074075        0.72973        0        
C3        C        0.8125        0.092592        0.72973        0        
C4        C        0.84375        0.037037        0.72973        0        
C1        C        0.8125        0.12963        0.72973        0        
C2        C        0.84375        0.185185        0.72973        0        
C3        C        0.8125        0.203703        0.72973        0        
C4        C        0.84375        0.148148        0.72973        0        
C1        C        0.8125        0.24074099999999998        0.72973        0        
C2        C        0.84375        0.296297        0.72973        0        
C3        C        0.8125        0.314815        0.72973        0        
C4        C        0.84375        0.259259        0.72973        0        
C1        C        0.8125        0.351852        0.72973        0        
C2        C        0.84375        0.407408        0.72973        0        
C3        C        0.8125        0.425925        0.72973        0        
C4        C        0.84375        0.37037        0.72973        0        
C1        C        0.8125        0.46296300000000007        0.72973        0        
C2        C        0.84375        0.518519        0.72973        0        
C3        C        0.8125        0.537037        0.72973        0        
C4        C        0.84375        0.481481        0.72973        0        
C1        C        0.8125        0.574075        0.72973        0        
C2        C        0.84375        0.62963        0.72973        0        
C3        C        0.8125        0.648148        0.72973        0        
C4        C        0.84375        0.592592        0.72973        0        
C1        C        0.875        0.018519        0.72973        0        
C2        C        0.9062500000000001        0.074075        0.72973        0        
C3        C        0.875        0.092592        0.72973        0        
C4        C        0.9062500000000001        0.037037        0.72973        0        
C1        C        0.875        0.12963        0.72973        0        
C2        C        0.9062500000000001        0.185185        0.72973        0        
C3        C        0.875        0.203703        0.72973        0        
C4        C        0.9062500000000001        0.148148        0.72973        0        
C1        C        0.875        0.24074099999999998        0.72973        0        
C2        C        0.9062500000000001        0.296297        0.72973        0        
C3        C        0.875        0.314815        0.72973        0        
C4        C        0.9062500000000001        0.259259        0.72973        0        
C1        C        0.875        0.351852        0.72973        0        
C2        C        0.9062500000000001        0.407408        0.72973        0        
C3        C        0.875        0.425925        0.72973        0        
C4        C        0.9062500000000001        0.37037        0.72973        0        
C1        C        0.875        0.46296300000000007        0.72973        0        
C2        C        0.9062500000000001        0.518519        0.72973        0        
C3        C        0.875        0.537037        0.72973        0        
C4        C        0.9062500000000001        0.481481        0.72973        0        
C1        C        0.875        0.574075        0.72973        0        
C2        C        0.9062500000000001        0.62963        0.72973        0        
C3        C        0.875        0.648148        0.72973        0        
C4        C        0.9062500000000001        0.592592        0.72973        0        
C1        C        0.9375        0.018519        0.72973        0        
C2        C        0.9687500000000001        0.074075        0.72973        0        
C3        C        0.9375        0.092592        0.72973        0        
C4        C        0.9687500000000001        0.037037        0.72973        0        
C1        C        0.9375        0.12963        0.72973        0        
C2        C        0.9687500000000001        0.185185        0.72973        0        
C3        C        0.9375        0.203703        0.72973        0        
C4        C        0.9687500000000001        0.148148        0.72973        0        
C1        C        0.9375        0.24074099999999998        0.72973        0        
C2        C        0.9687500000000001        0.296297        0.72973        0        
C3        C        0.9375        0.314815        0.72973        0        
C4        C        0.9687500000000001        0.259259        0.72973        0        
C1        C        0.9375        0.351852        0.72973        0        
C2        C        0.9687500000000001        0.407408        0.72973        0        
C3        C        0.9375        0.425925        0.72973        0        
C4        C        0.9687500000000001        0.37037        0.72973        0        
C1        C        0.9375        0.46296300000000007        0.72973        0        
C2        C        0.9687500000000001        0.518519        0.72973        0        
C3        C        0.9375        0.537037        0.72973        0        
C4        C        0.9687500000000001        0.481481        0.72973        0        
C1        C        0.9375        0.574075        0.72973        0        
C2        C        0.9687500000000001        0.62963        0.72973        0        
C3        C        0.9375        0.648148        0.72973        0        
C4        C        0.9687500000000001        0.592592        0.72973        0        
C1        C        0.0        0.685186        0.72973        0        
C1        C        0.0625        0.685186        0.72973        0        
C1        C        0.125        0.685186        0.72973        0        
C1        C        0.1875        0.685186        0.72973        0        
C1        C        0.25        0.685186        0.72973        0        
C1        C        0.3125        0.685186        0.72973        0        
C1        C        0.375        0.685186        0.72973        0        
C1        C        0.4375        0.685186        0.72973        0        
C1        C        0.5        0.685186        0.72973        0        
C1        C        0.5625        0.685186        0.72973        0        
C1        C        0.625        0.685186        0.72973        0        
C1        C        0.6875        0.685186        0.72973        0        
C1        C        0.75        0.685186        0.72973        0        
C1        C        0.8125        0.685186        0.72973        0        
C1        C        0.875        0.685186        0.72973        0        
C1        C        0.9375        0.685186        0.72973        0        
C2        C        0.03125        0.740741        0.72973        0        
C2        C        0.09375        0.740741        0.72973        0        
C2        C        0.15625        0.740741        0.72973        0        
C2        C        0.21875        0.740741        0.72973        0        
C2        C        0.28125        0.740741        0.72973        0        
C2        C        0.34375        0.740741        0.72973        0        
C2        C        0.40625        0.740741        0.72973        0        
C2        C        0.46875        0.740741        0.72973        0        
C2        C        0.53125        0.740741        0.72973        0        
C2        C        0.59375        0.740741        0.72973        0        
C2        C        0.65625        0.740741        0.72973        0        
C2        C        0.71875        0.740741        0.72973        0        
C2        C        0.78125        0.740741        0.72973        0        
C2        C        0.84375        0.740741        0.72973        0        
C2        C        0.9062500000000001        0.740741        0.72973        0        
C2        C        0.9687500000000001        0.740741        0.72973        0        
C3        C        0.0        0.759259        0.72973        0        
C3        C        0.0625        0.759259        0.72973        0        
C3        C        0.125        0.759259        0.72973        0        
C3        C        0.1875        0.759259        0.72973        0        
C3        C        0.25        0.759259        0.72973        0        
C3        C        0.3125        0.759259        0.72973        0        
C3        C        0.375        0.759259        0.72973        0        
C3        C        0.4375        0.759259        0.72973        0        
C3        C        0.5        0.759259        0.72973        0        
C3        C        0.5625        0.759259        0.72973        0        
C3        C        0.625        0.759259        0.72973        0        
C3        C        0.6875        0.759259        0.72973        0        
C3        C        0.75        0.759259        0.72973        0        
C3        C        0.8125        0.759259        0.72973        0        
C3        C        0.875        0.759259        0.72973        0        
C3        C        0.9375        0.759259        0.72973        0        
C4        C        0.03125        0.703703        0.72973        0        
C4        C        0.09375        0.703703        0.72973        0        
C4        C        0.15625        0.703703        0.72973        0        
C4        C        0.21875        0.703703        0.72973        0        
C4        C        0.28125        0.703703        0.72973        0        
C4        C        0.34375        0.703703        0.72973        0        
C4        C        0.40625        0.703703        0.72973        0        
C4        C        0.46875        0.703703        0.72973        0        
C4        C        0.53125        0.703703        0.72973        0        
C4        C        0.59375        0.703703        0.72973        0        
C4        C        0.65625        0.703703        0.72973        0        
C4        C        0.71875        0.703703        0.72973        0        
C4        C        0.78125        0.703703        0.72973        0        
C4        C        0.84375        0.703703        0.72973        0        
C4        C        0.9062500000000001        0.703703        0.72973        0        
C4        C        0.9687500000000001        0.703703        0.72973        0        
C1        C        0.0        0.796297        0.72973        0        
C1        C        0.0625        0.796297        0.72973        0        
C1        C        0.125        0.796297        0.72973        0        
C1        C        0.1875        0.796297        0.72973        0        
C1        C        0.25        0.796297        0.72973        0        
C1        C        0.3125        0.796297        0.72973        0        
C1        C        0.375        0.796297        0.72973        0        
C1        C        0.4375        0.796297        0.72973        0        
C1        C        0.5        0.796297        0.72973        0        
C1        C        0.5625        0.796297        0.72973        0        
C1        C        0.625        0.796297        0.72973        0        
C1        C        0.6875        0.796297        0.72973        0        
C1        C        0.75        0.796297        0.72973        0        
C1        C        0.8125        0.796297        0.72973        0        
C1        C        0.875        0.796297        0.72973        0        
C1        C        0.9375        0.796297        0.72973        0        
C2        C        0.03125        0.851852        0.72973        0        
C2        C        0.09375        0.851852        0.72973        0        
C2        C        0.15625        0.851852        0.72973        0        
C2        C        0.21875        0.851852        0.72973        0        
C2        C        0.28125        0.851852        0.72973        0        
C2        C        0.34375        0.851852        0.72973        0        
C2        C        0.40625        0.851852        0.72973        0        
C2        C        0.46875        0.851852        0.72973        0        
C2        C        0.53125        0.851852        0.72973        0        
C2        C        0.59375        0.851852        0.72973        0        
C2        C        0.65625        0.851852        0.72973        0        
C2        C        0.71875        0.851852        0.72973        0        
C2        C        0.78125        0.851852        0.72973        0        
C2        C        0.84375        0.851852        0.72973        0        
C2        C        0.9062500000000001        0.851852        0.72973        0        
C2        C        0.9687500000000001        0.851852        0.72973        0        
C3        C        0.0        0.87037        0.72973        0        
C3        C        0.0625        0.87037        0.72973        0        
C3        C        0.125        0.87037        0.72973        0        
C3        C        0.1875        0.87037        0.72973        0        
C3        C        0.25        0.87037        0.72973        0        
C3        C        0.3125        0.87037        0.72973        0        
C3        C        0.375        0.87037        0.72973        0        
C3        C        0.4375        0.87037        0.72973        0        
C3        C        0.5        0.87037        0.72973        0        
C3        C        0.5625        0.87037        0.72973        0        
C3        C        0.625        0.87037        0.72973        0        
C3        C        0.6875        0.87037        0.72973        0        
C3        C        0.75        0.87037        0.72973        0        
C3        C        0.8125        0.87037        0.72973        0        
C3        C        0.875        0.87037        0.72973        0        
C3        C        0.9375        0.87037        0.72973        0        
C4        C        0.03125        0.814814        0.72973        0        
C4        C        0.09375        0.814814        0.72973        0        
C4        C        0.15625        0.814814        0.72973        0        
C4        C        0.21875        0.814814        0.72973        0        
C4        C        0.28125        0.814814        0.72973        0        
C4        C        0.34375        0.814814        0.72973        0        
C4        C        0.40625        0.814814        0.72973        0        
C4        C        0.46875        0.814814        0.72973        0        
C4        C        0.53125        0.814814        0.72973        0        
C4        C        0.59375        0.814814        0.72973        0        
C4        C        0.65625        0.814814        0.72973        0        
C4        C        0.71875        0.814814        0.72973        0        
C4        C        0.78125        0.814814        0.72973        0        
C4        C        0.84375        0.814814        0.72973        0        
C4        C        0.9062500000000001        0.814814        0.72973        0        
C4        C        0.9687500000000001        0.814814        0.72973        0        
C1        C        0.0        0.907408        0.72973        0        
C1        C        0.0625        0.907408        0.72973        0        
C1        C        0.125        0.907408        0.72973        0        
C1        C        0.1875        0.907408        0.72973        0        
C1        C        0.25        0.907408        0.72973        0        
C1        C        0.3125        0.907408        0.72973        0        
C1        C        0.375        0.907408        0.72973        0        
C1        C        0.4375        0.907408        0.72973        0        
C1        C        0.5        0.907408        0.72973        0        
C1        C        0.5625        0.907408        0.72973        0        
C1        C        0.625        0.907408        0.72973        0        
C1        C        0.6875        0.907408        0.72973        0        
C1        C        0.75        0.907408        0.72973        0        
C1        C        0.8125        0.907408        0.72973        0        
C1        C        0.875        0.907408        0.72973        0        
C1        C        0.9375        0.907408        0.72973        0        
C2        C        0.03125        0.962963        0.72973        0        
C2        C        0.09375        0.962963        0.72973        0        
C2        C        0.15625        0.962963        0.72973        0        
C2        C        0.21875        0.962963        0.72973        0        
C2        C        0.28125        0.962963        0.72973        0        
C2        C        0.34375        0.962963        0.72973        0        
C2        C        0.40625        0.962963        0.72973        0        
C2        C        0.46875        0.962963        0.72973        0        
C2        C        0.53125        0.962963        0.72973        0        
C2        C        0.59375        0.962963        0.72973        0        
C2        C        0.65625        0.962963        0.72973        0        
C2        C        0.71875        0.962963        0.72973        0        
C2        C        0.78125        0.962963        0.72973        0        
C2        C        0.84375        0.962963        0.72973        0        
C2        C        0.9062500000000001        0.962963        0.72973        0        
C2        C        0.9687500000000001        0.962963        0.72973        0        
C3        C        0.0        0.9814809999999999        0.72973        0        
C3        C        0.0625        0.9814809999999999        0.72973        0        
C3        C        0.125        0.9814809999999999        0.72973        0        
C3        C        0.1875        0.9814809999999999        0.72973        0        
C3        C        0.25        0.9814809999999999        0.72973        0        
C3        C        0.3125        0.9814809999999999        0.72973        0        
C3        C        0.375        0.9814809999999999        0.72973        0        
C3        C        0.4375        0.9814809999999999        0.72973        0        
C3        C        0.5        0.9814809999999999        0.72973        0        
C3        C        0.5625        0.9814809999999999        0.72973        0        
C3        C        0.625        0.9814809999999999        0.72973        0        
C3        C        0.6875        0.9814809999999999        0.72973        0        
C3        C        0.75        0.9814809999999999        0.72973        0        
C3        C        0.8125        0.9814809999999999        0.72973        0        
C3        C        0.875        0.9814809999999999        0.72973        0        
C3        C        0.9375        0.9814809999999999        0.72973        0        
C4        C        0.03125        0.925925        0.72973        0        
C4        C        0.09375        0.925925        0.72973        0        
C4        C        0.15625        0.925925        0.72973        0        
C4        C        0.21875        0.925925        0.72973        0        
C4        C        0.28125        0.925925        0.72973        0        
C4        C        0.34375        0.925925        0.72973        0        
C4        C        0.40625        0.925925        0.72973        0        
C4        C        0.46875        0.925925        0.72973        0        
C4        C        0.53125        0.925925        0.72973        0        
C4        C        0.59375        0.925925        0.72973        0        
C4        C        0.65625        0.925925        0.72973        0        
C4        C        0.71875        0.925925        0.72973        0        
C4        C        0.78125        0.925925        0.72973        0        
C4        C        0.84375        0.925925        0.72973        0        
C4        C        0.9062500000000001        0.925925        0.72973        0        
C4        C        0.9687500000000001        0.925925        0.72973        0        
O_OH        O        0.0        0.018519        0.45344594594594595        -0.64        
O_OH        O        0.0        0.12963        0.45344594594594595        -0.64        
O_OH        O        0.0        0.24074099999999998        0.45344594594594595        -0.64        
O_OH        O        0.0        0.351852        0.45344594594594595        -0.64        
O_OH        O        0.0        0.46296300000000007        0.45344594594594595        -0.64        
O_OH        O        0.0        0.574075        0.45344594594594595        -0.64        
O_OH        O        0.125        0.018519        0.45344594594594595        -0.64        
O_OH        O        0.125        0.12963        0.45344594594594595        -0.64        
O_OH        O        0.125        0.24074099999999998        0.45344594594594595        -0.64        
O_OH        O        0.125        0.351852        0.45344594594594595        -0.64        
O_OH        O        0.125        0.46296300000000007        0.45344594594594595        -0.64        
O_OH        O        0.125        0.574075        0.45344594594594595        -0.64        
O_OH        O        0.25        0.018519        0.45344594594594595        -0.64        
O_OH        O        0.25        0.12963        0.45344594594594595        -0.64        
O_OH        O        0.25        0.24074099999999998        0.45344594594594595        -0.64        
O_OH        O        0.25        0.351852        0.45344594594594595        -0.64        
O_OH        O        0.25        0.46296300000000007        0.45344594594594595        -0.64        
O_OH        O        0.25        0.574075        0.45344594594594595        -0.64        
O_OH        O        0.375        0.018519        0.45344594594594595        -0.64        
O_OH        O        0.375        0.12963        0.45344594594594595        -0.64        
O_OH        O        0.375        0.24074099999999998        0.45344594594594595        -0.64        
O_OH        O        0.375        0.351852        0.45344594594594595        -0.64        
O_OH        O        0.375        0.46296300000000007        0.45344594594594595        -0.64        
O_OH        O        0.375        0.574075        0.45344594594594595        -0.64        
O_OH        O        0.5        0.018519        0.45344594594594595        -0.64        
O_OH        O        0.5        0.12963        0.45344594594594595        -0.64        
O_OH        O        0.5        0.24074099999999998        0.45344594594594595        -0.64        
O_OH        O        0.5        0.351852        0.45344594594594595        -0.64        
O_OH        O        0.5        0.46296300000000007        0.45344594594594595        -0.64        
O_OH        O        0.5        0.574075        0.45344594594594595        -0.64        
O_OH        O        0.625        0.018519        0.45344594594594595        -0.64        
O_OH        O        0.625        0.12963        0.45344594594594595        -0.64        
O_OH        O        0.625        0.24074099999999998        0.45344594594594595        -0.64        
O_OH        O        0.625        0.351852        0.45344594594594595        -0.64        
O_OH        O        0.625        0.46296300000000007        0.45344594594594595        -0.64        
O_OH        O        0.625        0.574075        0.45344594594594595        -0.64        
O_OH        O        0.75        0.018519        0.45344594594594595        -0.64        
O_OH        O        0.75        0.12963        0.45344594594594595        -0.64        
O_OH        O        0.75        0.24074099999999998        0.45344594594594595        -0.64        
O_OH        O        0.75        0.351852        0.45344594594594595        -0.64        
O_OH        O        0.75        0.46296300000000007        0.45344594594594595        -0.64        
O_OH        O        0.75        0.574075        0.45344594594594595        -0.64        
O_OH        O        0.875        0.018519        0.45344594594594595        -0.64        
O_OH        O        0.875        0.12963        0.45344594594594595        -0.64        
O_OH        O        0.875        0.24074099999999998        0.45344594594594595        -0.64        
O_OH        O        0.875        0.351852        0.45344594594594595        -0.64        
O_OH        O        0.875        0.46296300000000007        0.45344594594594595        -0.64        
O_OH        O        0.875        0.574075        0.45344594594594595        -0.64        
O_OH        O        0.0        0.685186        0.45344594594594595        -0.64        
O_OH        O        0.125        0.685186        0.45344594594594595        -0.64        
O_OH        O        0.25        0.685186        0.45344594594594595        -0.64        
O_OH        O        0.375        0.685186        0.45344594594594595        -0.64        
O_OH        O        0.5        0.685186        0.45344594594594595        -0.64        
O_OH        O        0.625        0.685186        0.45344594594594595        -0.64        
O_OH        O        0.75        0.685186        0.45344594594594595        -0.64        
O_OH        O        0.875        0.685186        0.45344594594594595        -0.64        
O_OH        O        0.0        0.796297        0.45344594594594595        -0.64        
O_OH        O        0.125        0.796297        0.45344594594594595        -0.64        
O_OH        O        0.25        0.796297        0.45344594594594595        -0.64        
O_OH        O        0.375        0.796297        0.45344594594594595        -0.64        
O_OH        O        0.5        0.796297        0.45344594594594595        -0.64        
O_OH        O        0.625        0.796297        0.45344594594594595        -0.64        
O_OH        O        0.75        0.796297        0.45344594594594595        -0.64        
O_OH        O        0.875        0.796297        0.45344594594594595        -0.64        
O_OH        O        0.0        0.907408        0.45344594594594595        -0.64        
O_OH        O        0.125        0.907408        0.45344594594594595        -0.64        
O_OH        O        0.25        0.907408        0.45344594594594595        -0.64        
O_OH        O        0.375        0.907408        0.45344594594594595        -0.64        
O_OH        O        0.5        0.907408        0.45344594594594595        -0.64        
O_OH        O        0.625        0.907408        0.45344594594594595        -0.64        
O_OH        O        0.75        0.907408        0.45344594594594595        -0.64        
O_OH        O        0.875        0.907408        0.45344594594594595        -0.64        
O_OH        O        0.0        0.018519        0.5465540540540541        -0.64        
O_OH        O        0.0        0.12963        0.5465540540540541        -0.64        
O_OH        O        0.0        0.24074099999999998        0.5465540540540541        -0.64        
O_OH        O        0.0        0.351852        0.5465540540540541        -0.64        
O_OH        O        0.0        0.46296300000000007        0.5465540540540541        -0.64        
O_OH        O        0.0        0.574075        0.5465540540540541        -0.64        
O_OH        O        0.125        0.018519        0.5465540540540541        -0.64        
O_OH        O        0.125        0.12963        0.5465540540540541        -0.64        
O_OH        O        0.125        0.24074099999999998        0.5465540540540541        -0.64        
O_OH        O        0.125        0.351852        0.5465540540540541        -0.64        
O_OH        O        0.125        0.46296300000000007        0.5465540540540541        -0.64        
O_OH        O        0.125        0.574075        0.5465540540540541        -0.64        
O_OH        O        0.25        0.018519        0.5465540540540541        -0.64        
O_OH        O        0.25        0.12963        0.5465540540540541        -0.64        
O_OH        O        0.25        0.24074099999999998        0.5465540540540541        -0.64        
O_OH        O        0.25        0.351852        0.5465540540540541        -0.64        
O_OH        O        0.25        0.46296300000000007        0.5465540540540541        -0.64        
O_OH        O        0.25        0.574075        0.5465540540540541        -0.64        
O_OH        O        0.375        0.018519        0.5465540540540541        -0.64        
O_OH        O        0.375        0.12963        0.5465540540540541        -0.64        
O_OH        O        0.375        0.24074099999999998        0.5465540540540541        -0.64        
O_OH        O        0.375        0.351852        0.5465540540540541        -0.64        
O_OH        O        0.375        0.46296300000000007        0.5465540540540541        -0.64        
O_OH        O        0.375        0.574075        0.5465540540540541        -0.64        
O_OH        O        0.5        0.018519        0.5465540540540541        -0.64        
O_OH        O        0.5        0.12963        0.5465540540540541        -0.64        
O_OH        O        0.5        0.24074099999999998        0.5465540540540541        -0.64        
O_OH        O        0.5        0.351852        0.5465540540540541        -0.64        
O_OH        O        0.5        0.46296300000000007        0.5465540540540541        -0.64        
O_OH        O        0.5        0.574075        0.5465540540540541        -0.64        
O_OH        O        0.625        0.018519        0.5465540540540541        -0.64        
O_OH        O        0.625        0.12963        0.5465540540540541        -0.64        
O_OH        O        0.625        0.24074099999999998        0.5465540540540541        -0.64        
O_OH        O        0.625        0.351852        0.5465540540540541        -0.64        
O_OH        O        0.625        0.46296300000000007        0.5465540540540541        -0.64        
O_OH        O        0.625        0.574075        0.5465540540540541        -0.64        
O_OH        O        0.75        0.018519        0.5465540540540541        -0.64        
O_OH        O        0.75        0.12963        0.5465540540540541        -0.64        
O_OH        O        0.75        0.24074099999999998        0.5465540540540541        -0.64        
O_OH        O        0.75        0.351852        0.5465540540540541        -0.64        
O_OH        O        0.75        0.46296300000000007        0.5465540540540541        -0.64        
O_OH        O        0.75        0.574075        0.5465540540540541        -0.64        
O_OH        O        0.875        0.018519        0.5465540540540541        -0.64        
O_OH        O        0.875        0.12963        0.5465540540540541        -0.64        
O_OH        O        0.875        0.24074099999999998        0.5465540540540541        -0.64        
O_OH        O        0.875        0.351852        0.5465540540540541        -0.64        
O_OH        O        0.875        0.46296300000000007        0.5465540540540541        -0.64        
O_OH        O        0.875        0.574075        0.5465540540540541        -0.64        
O_OH        O        0.0        0.685186        0.5465540540540541        -0.64        
O_OH        O        0.125        0.685186        0.5465540540540541        -0.64        
O_OH        O        0.25        0.685186        0.5465540540540541        -0.64        
O_OH        O        0.375        0.685186        0.5465540540540541        -0.64        
O_OH        O        0.5        0.685186        0.5465540540540541        -0.64        
O_OH        O        0.625        0.685186        0.5465540540540541        -0.64        
O_OH        O        0.75        0.685186        0.5465540540540541        -0.64        
O_OH        O        0.875        0.685186        0.5465540540540541        -0.64        
O_OH        O        0.0        0.796297        0.5465540540540541        -0.64        
O_OH        O        0.125        0.796297        0.5465540540540541        -0.64        
O_OH        O        0.25        0.796297        0.5465540540540541        -0.64        
O_OH        O        0.375        0.796297        0.5465540540540541        -0.64        
O_OH        O        0.5        0.796297        0.5465540540540541        -0.64        
O_OH        O        0.625        0.796297        0.5465540540540541        -0.64        
O_OH        O        0.75        0.796297        0.5465540540540541        -0.64        
O_OH        O        0.875        0.796297        0.5465540540540541        -0.64        
O_OH        O        0.0        0.907408        0.5465540540540541        -0.64        
O_OH        O        0.125        0.907408        0.5465540540540541        -0.64        
O_OH        O        0.25        0.907408        0.5465540540540541        -0.64        
O_OH        O        0.375        0.907408        0.5465540540540541        -0.64        
O_OH        O        0.5        0.907408        0.5465540540540541        -0.64        
O_OH        O        0.625        0.907408        0.5465540540540541        -0.64        
O_OH        O        0.75        0.907408        0.5465540540540541        -0.64        
O_OH        O        0.875        0.907408        0.5465540540540541        -0.64        
H_OH        H        0.019727701592751955        0.030346891917355755        0.4610179954954955        0.44        
H_OH        H        -0.014920814044417688        0.14739035818804025        0.4610179954954955        0.44        
H_OH        H        0.02254724819707528        0.24451939442985882        0.4610179954954955        0.44        
H_OH        H        0.020132845779237504        0.36293708256924584        0.4610179954954955        0.44        
H_OH        H        -0.02222934568002025        0.46837394514864805        0.4610179954954955        0.44        
H_OH        H        -0.022125803880832493        0.57991610899268        0.4610179954954955        0.44        
H_OH        H        0.11268464500993368        0.03827296330563119        0.4610179954954955        0.44        
H_OH        H        0.13756454230447324        0.1492178800803817        0.4610179954954955        0.44        
H_OH        H        0.1081026160788525        0.2565254420686994        0.4610179954954955        0.44        
H_OH        H        0.12418493207450353        0.375290519535116        0.4610179954954955        0.44        
H_OH        H        0.11713069417940312        0.48498116482781994        0.4610179954954955        0.44        
H_OH        H        0.14705929982996713        0.580175448666832        0.4610179954954955        0.44        
H_OH        H        0.2643298662864117        0.03678503178436589        0.4610179954954955        0.44        
H_OH        H        0.23994881189078598        0.15069160107439503        0.4610179954954955        0.44        
H_OH        H        0.26915693452707        0.2535194862335959        0.4610179954954955        0.44        
H_OH        H        0.2669960905874702        0.367524355381687        0.4610179954954955        0.44        
H_OH        H        0.25231019038922575        0.48629623004254946        0.4610179954954955        0.44        
H_OH        H        0.2637326129424977        0.592818318263025        0.4610179954954955        0.44        
H_OH        H        0.3784104626390251        0.0417096443810444        0.4610179954954955        0.44        
H_OH        H        0.3808217456649356        0.15230915942619996        0.4610179954954955        0.44        
H_OH        H        0.36361518599377696        0.26107476761133536        0.4610179954954955        0.44        
H_OH        H        0.36103070205890675        0.3704100668779328        0.4610179954954955        0.44        
H_OH        H        0.3621978801651593        0.4823880758094505        0.4610179954954955        0.44        
H_OH        H        0.35350087811584946        0.5820079385873892        0.4610179954954955        0.44        
H_OH        H        0.5196926424790289        0.030408305430087754        0.4610179954954955        0.44        
H_OH        H        0.5225309627998672        0.133509427999742        0.4610179954954955        0.44        
H_OH        H        0.5040113420092146        0.26383008689387377        0.4610179954954955        0.44        
H_OH        H        0.5063521792886434        0.3743806185404002        0.4610179954954955        0.44        
H_OH        H        0.48506074924245285        0.48070701644643943        0.4610179954954955        0.44        
H_OH        H        0.5216913569484147        0.5814357840055924        0.4610179954954955        0.44        
H_OH        H        0.6201352240577922        0.04143454779121216        0.4610179954954955        0.44        
H_OH        H        0.6032893617334784        0.13693062833551078        0.4610179954954955        0.44        
H_OH        H        0.6281476295661755        0.26397077839557437        0.4610179954954955        0.44        
H_OH        H        0.6376166754128935        0.37140453158589637        0.4610179954954955        0.44        
H_OH        H        0.606041653771574        0.47604990422316545        0.4610179954954955        0.44        
H_OH        H        0.6460363505404715        0.5832225135351062        0.4610179954954955        0.44        
H_OH        H        0.7444996139703114        0.04128254366429862        0.4610179954954955        0.44        
H_OH        H        0.7425091193504446        0.15178684227496422        0.4610179954954955        0.44        
H_OH        H        0.7726198168745342        0.2440306548959305        0.4610179954954955        0.44        
H_OH        H        0.7365392395429787        0.37080201698407117        0.4610179954954955        0.44        
H_OH        H        0.7691462627732486        0.47575833162942777        0.4610179954954955        0.44        
H_OH        H        0.7458133247206575        0.5971312583798211        0.4610179954954955        0.44        
H_OH        H        0.8548449711664423        0.029561516124787537        0.4610179954954955        0.44        
H_OH        H        0.8549948527300051        0.14095611878790354        0.4610179954954955        0.44        
H_OH        H        0.871347693881902        0.26389279926698883        0.4610179954954955        0.44        
H_OH        H        0.8781974199091725        0.3750746107249833        0.4610179954954955        0.44        
H_OH        H        0.8908107216437025        0.4798924888036443        0.4610179954954955        0.44        
H_OH        H        0.856673699074404        0.5880786855279558        0.4610179954954955        0.44        
H_OH        H        0.018088094262257347        0.6995123754925351        0.4610179954954955        0.44        
H_OH        H        0.1397615470659221        0.7030860733547529        0.4610179954954955        0.44        
H_OH        H        0.23866966630137412        0.705551813412971        0.4610179954954955        0.44        
H_OH        H        0.37432534138983226        0.7086292217741639        0.4610179954954955        0.44        
H_OH        H        0.5169573945759227        0.7009024698920276        0.4610179954954955        0.44        
H_OH        H        0.6234351459443066        0.7085843665283801        0.4610179954954955        0.44        
H_OH        H        0.7279816932592293        0.6914405799725927        0.4610179954954955        0.44        
H_OH        H        0.8978155332534193        0.686390135782723        0.4610179954954955        0.44        
H_OH        H        -0.01209794258626503        0.8161920494441368        0.4610179954954955        0.44        
H_OH        H        0.1170640880957401        0.8182899556943296        0.4610179954954955        0.44        
H_OH        H        0.22920736203013295        0.8060140410370591        0.4610179954954955        0.44        
H_OH        H        0.35807605790850416        0.812051426357505        0.4610179954954955        0.44        
H_OH        H        0.4878314181915645        0.8161465945303632        0.4610179954954955        0.44        
H_OH        H        0.6151749511059965        0.817470761534598        0.4610179954954955        0.44        
H_OH        H        0.771436064355291        0.8044077874222008        0.4610179954954955        0.44        
H_OH        H        0.8933415626925267        0.8102796113350944        0.4610179954954955        0.44        
H_OH        H        0.010480611717903966        0.9282478376259586        0.4610179954954955        0.44        
H_OH        H        0.11476548526849017        0.928376348099817        0.4610179954954955        0.44        
H_OH        H        0.2670788710279734        0.9229852237604618        0.4610179954954955        0.44        
H_OH        H        0.3886709590287854        0.9261987586309758        0.4610179954954955        0.44        
H_OH        H        0.4831406592351847        0.9232352569720002        0.4610179954954955        0.44        
H_OH        H        0.6099764519034917        0.9250768470329979        0.4610179954954955        0.44        
H_OH        H        0.7309406188064747        0.9203393125745033        0.4610179954954955        0.44        
H_OH        H        0.8870827426361759        0.927312782192455        0.4610179954954955        0.44        
H_OH        H        -0.013980537798724312        0.037068144354110065        0.5389820045045045        0.44        
H_OH        H        -0.022522774176014088        0.13355922139952975        0.5389820045045045        0.44        
H_OH        H        0.0027343748126730277        0.26402585403782464        0.5389820045045045        0.44        
H_OH        H        0.018423578120891442        0.36572050885447127        0.5389820045045045        0.44        
H_OH        H        -0.022087059406995686        0.46895665636091094        0.5389820045045045        0.44        
H_OH        H        0.022556509780882857        0.5777946787250681        0.5389820045045045        0.44        
H_OH        H        0.14283468342195244        0.03317638941727114        0.5389820045045045        0.44        
H_OH        H        0.133327133224113        0.15146997740121548        0.5389820045045045        0.44        
H_OH        H        0.10719472554013244        0.25543602330081727        0.5389820045045045        0.44        
H_OH        H        0.10237915368824894        0.3551341861490768        0.5389820045045045        0.44        
H_OH        H        0.12676324259225683        0.4863464920757144        0.5389820045045045        0.44        
H_OH        H        0.1453594536977187        0.5847149461531136        0.5389820045045045        0.44        
H_OH        H        0.23377416074952878        0.035029349061453025        0.5389820045045045        0.44        
H_OH        H        0.27274920033997        0.13178298448930958        0.5389820045045045        0.44        
H_OH        H        0.2395692802913275        0.2616072021350284        0.5389820045045045        0.44        
H_OH        H        0.2549654130944209        0.37474478729829813        0.5389820045045045        0.44        
H_OH        H        0.24089634245733513        0.4844739136189889        0.5389820045045045        0.44        
H_OH        H        0.2313187274679882        0.5875753072827863        0.5389820045045045        0.44        
H_OH        H        0.3913254602531143        0.034925522937019275        0.5389820045045045        0.44        
H_OH        H        0.3818430802472251        0.15200659142754594        0.5389820045045045        0.44        
H_OH        H        0.3803809620512172        0.26353460606476864        0.5389820045045045        0.44        
H_OH        H        0.37614965164537795        0.3752757356644606        0.5389820045045045        0.44        
H_OH        H        0.3861795409320687        0.4834164517978339        0.5389820045045045        0.44        
H_OH        H        0.35658884352680476        0.5879608833016322        0.5389820045045045        0.44        
H_OH        H        0.500756532782399        0.04195958770176359        0.5389820045045045        0.44        
H_OH        H        0.522587289379969        0.13314732642529778        0.5389820045045045        0.44        
H_OH        H        0.478379750004083        0.2483190568376842        0.5389820045045045        0.44        
H_OH        H        0.5051089025960661        0.37471148847059327        0.5389820045045045        0.44        
H_OH        H        0.48174274176157006        0.47706141189215673        0.5389820045045045        0.44        
H_OH        H        0.49340681583023016        0.5965305237196593        0.5389820045045045        0.44        
H_OH        H        0.6470698799330731        0.024578984306500216        0.5389820045045045        0.44        
H_OH        H        0.6433045545063388        0.14366362915217226        0.5389820045045045        0.44        
H_OH        H        0.6469568748973484        0.24721918644993568        0.5389820045045045        0.44        
H_OH        H        0.6458756018524733        0.36137972493601495        0.5389820045045045        0.44        
H_OH        H        0.6151747126268466        0.4841366449074792        0.5389820045045045        0.44        
H_OH        H        0.6328307200662426        0.5961076585287566        0.5389820045045045        0.44        
H_OH        H        0.7645890031655384        0.036567543670974326        0.5389820045045045        0.44        
H_OH        H        0.7409389627662718        0.1511598706571478        0.5389820045045045        0.44        
H_OH        H        0.7285727203610447        0.24887621459763876        0.5389820045045045        0.44        
H_OH        H        0.7377065893477291        0.37162036374573015        0.5389820045045045        0.44        
H_OH        H        0.7631294120591385        0.48215645687752207        0.5389820045045045        0.44        
H_OH        H        0.7721691025309003        0.579740442503424        0.5389820045045045        0.44        
H_OH        H        0.8961788654345042        0.027313107839297596        0.5389820045045045        0.44        
H_OH        H        0.8682443095908678        0.1520345600637439        0.5389820045045045        0.44        
H_OH        H        0.8547031273580238        0.25150621941624096        0.5389820045045045        0.44        
H_OH        H        0.8668242297906354        0.3737521648450111        0.5389820045045045        0.44        
H_OH        H        0.8672437229759015        0.4850233931584563        0.5389820045045045        0.44        
H_OH        H        0.8780678630350662        0.5973160224273805        0.5389820045045045        0.44        
H_OH        H        0.016908102864023167        0.7009583402010365        0.5389820045045045        0.44        
H_OH        H        0.14661014778806916        0.6927943647513649        0.5389820045045045        0.44        
H_OH        H        0.23544392934852257        0.7032625455438517        0.5389820045045045        0.44        
H_OH        H        0.3978307062318016        0.6860345352010182        0.5389820045045045        0.44        
H_OH        H        0.5217797471428802        0.6922663639935427        0.5389820045045045        0.44        
H_OH        H        0.611148704354381        0.7038370519911501        0.5389820045045045        0.44        
H_OH        H        0.7332251293778638        0.7011075680658565        0.5389820045045045        0.44        
H_OH        H        0.8717798850842791        0.7084053055506031        0.5389820045045045        0.44        
H_OH        H        0.01332476349809648        0.8153480444774925        0.5389820045045045        0.44        
H_OH        H        0.1476712203716979        0.7991897822308799        0.5389820045045045        0.44        
H_OH        H        0.22730453859126706        0.7989819879668119        0.5389820045045045        0.44        
H_OH        H        0.3971373698941176        0.8020917393072877        0.5389820045045045        0.44        
H_OH        H        0.48327447297916254        0.8122731849193813        0.5389820045045045        0.44        
H_OH        H        0.6477508033354523        0.798432058192079        0.5389820045045045        0.44        
H_OH        H        0.7571560292515902        0.8185701818678361        0.5389820045045045        0.44        
H_OH        H        0.8720727101994988        0.8195571229481966        0.5389820045045045        0.44        
H_OH        H        0.015387571312256664        0.9247435396156384        0.5389820045045045        0.44        
H_OH        H        0.1067811430126065        0.9215586702277262        0.5389820045045045        0.44        
H_OH        H        0.2720832097839778        0.9134165874595949        0.5389820045045045        0.44        
H_OH        H        0.3946945007428283        0.9192940609837726        0.5389820045045045        0.44        
H_OH        H        0.4926142116301724        0.9296019941435358        0.5389820045045045        0.44        
H_OH        H        0.6058263579534514        0.9201600497700805        0.5389820045045045        0.44        
H_OH        H        0.7553154773315153        0.9302177938691375        0.5389820045045045        0.44        
H_OH        H        0.897170186530991        0.9130689701962535        0.5389820045045045        0.44        
