data_graphite_ortho

_audit_creation_method RASPA-1.0
_audit_creation_date 2012-2-3
_audit_author_name 'David Dubbeldam'

_cell_length_a    39.36    
_cell_length_b    38.34    
_cell_length_c    15.6    
_cell_angle_alpha 90
_cell_angle_beta  90
_cell_angle_gamma 90
_cell_volume      23541.37      

_symmetry_cell_setting          triclinic
_symmetry_space_group_name_Hall 'P 1'
_symmetry_space_group_name_H-M  'P 1'
_symmetry_Int_Tables_number     1

_symmetry_equiv_pos_as_xyz 'x,y,z'

loop_
_atom_site_label
_atom_site_type_symbol
_atom_site_fract_x
_atom_site_fract_y
_atom_site_fract_z
_atom_site_charge
C_FG        C        0.0        0.018519        0.09185897435897436        0.5        
C2        C        0.03125        0.074075        0.09185897435897436        0        
C3        C        0.0        0.092592        0.09185897435897436        0        
C4        C        0.03125        0.037037        0.09185897435897436        0        
C_FG        C        0.0        0.12963        0.09185897435897436        0.5        
C2        C        0.03125        0.185185        0.09185897435897436        0        
C3        C        0.0        0.203703        0.09185897435897436        0        
C4        C        0.03125        0.148148        0.09185897435897436        0        
C_FG        C        0.0        0.24074099999999998        0.09185897435897436        0.5        
C2        C        0.03125        0.296297        0.09185897435897436        0        
C3        C        0.0        0.314815        0.09185897435897436        0        
C4        C        0.03125        0.259259        0.09185897435897436        0        
C_FG        C        0.0        0.351852        0.09185897435897436        0.5        
C2        C        0.03125        0.407408        0.09185897435897436        0        
C3        C        0.0        0.42592500000000005        0.09185897435897436        0        
C4        C        0.03125        0.37037        0.09185897435897436        0        
C_FG        C        0.0        0.46296300000000007        0.09185897435897436        0.5        
C2        C        0.03125        0.518519        0.09185897435897436        0        
C3        C        0.0        0.537037        0.09185897435897436        0        
C4        C        0.03125        0.481481        0.09185897435897436        0        
C_FG        C        0.0        0.574075        0.09185897435897436        0.5        
C2        C        0.03125        0.62963        0.09185897435897436        0        
C3        C        0.0        0.648148        0.09185897435897436        0        
C4        C        0.03125        0.592592        0.09185897435897436        0        
C1        C        0.0625        0.018519        0.09185897435897436        0        
C2        C        0.09375        0.074075        0.09185897435897436        0        
C3        C        0.0625        0.092592        0.09185897435897436        0        
C4        C        0.09375        0.037037        0.09185897435897436        0        
C1        C        0.0625        0.12963        0.09185897435897436        0        
C2        C        0.09375        0.185185        0.09185897435897436        0        
C3        C        0.0625        0.203703        0.09185897435897436        0        
C4        C        0.09375        0.148148        0.09185897435897436        0        
C1        C        0.0625        0.24074099999999998        0.09185897435897436        0        
C2        C        0.09375        0.296297        0.09185897435897436        0        
C3        C        0.0625        0.314815        0.09185897435897436        0        
C4        C        0.09375        0.259259        0.09185897435897436        0        
C1        C        0.0625        0.351852        0.09185897435897436        0        
C2        C        0.09375        0.407408        0.09185897435897436        0        
C3        C        0.0625        0.42592500000000005        0.09185897435897436        0        
C4        C        0.09375        0.37037        0.09185897435897436        0        
C1        C        0.0625        0.46296300000000007        0.09185897435897436        0        
C2        C        0.09375        0.518519        0.09185897435897436        0        
C3        C        0.0625        0.537037        0.09185897435897436        0        
C4        C        0.09375        0.481481        0.09185897435897436        0        
C1        C        0.0625        0.574075        0.09185897435897436        0        
C2        C        0.09375        0.62963        0.09185897435897436        0        
C3        C        0.0625        0.648148        0.09185897435897436        0        
C4        C        0.09375        0.592592        0.09185897435897436        0        
C1        C        0.125        0.018519        0.09185897435897436        0        
C2        C        0.15625        0.074075        0.09185897435897436        0        
C3        C        0.125        0.092592        0.09185897435897436        0        
C4        C        0.15625        0.037037        0.09185897435897436        0        
C1        C        0.125        0.12963        0.09185897435897436        0        
C2        C        0.15625        0.185185        0.09185897435897436        0        
C3        C        0.125        0.203703        0.09185897435897436        0        
C4        C        0.15625        0.148148        0.09185897435897436        0        
C1        C        0.125        0.24074099999999998        0.09185897435897436        0        
C2        C        0.15625        0.296297        0.09185897435897436        0        
C3        C        0.125        0.314815        0.09185897435897436        0        
C4        C        0.15625        0.259259        0.09185897435897436        0        
C1        C        0.125        0.351852        0.09185897435897436        0        
C2        C        0.15625        0.407408        0.09185897435897436        0        
C3        C        0.125        0.42592500000000005        0.09185897435897436        0        
C4        C        0.15625        0.37037        0.09185897435897436        0        
C1        C        0.125        0.46296300000000007        0.09185897435897436        0        
C2        C        0.15625        0.518519        0.09185897435897436        0        
C3        C        0.125        0.537037        0.09185897435897436        0        
C4        C        0.15625        0.481481        0.09185897435897436        0        
C1        C        0.125        0.574075        0.09185897435897436        0        
C2        C        0.15625        0.62963        0.09185897435897436        0        
C3        C        0.125        0.648148        0.09185897435897436        0        
C4        C        0.15625        0.592592        0.09185897435897436        0        
C1        C        0.1875        0.018519        0.09185897435897436        0        
C2        C        0.21875        0.074075        0.09185897435897436        0        
C3        C        0.1875        0.092592        0.09185897435897436        0        
C4        C        0.21875        0.037037        0.09185897435897436        0        
C1        C        0.1875        0.12963        0.09185897435897436        0        
C2        C        0.21875        0.185185        0.09185897435897436        0        
C3        C        0.1875        0.203703        0.09185897435897436        0        
C4        C        0.21875        0.148148        0.09185897435897436        0        
C1        C        0.1875        0.24074099999999998        0.09185897435897436        0        
C2        C        0.21875        0.296297        0.09185897435897436        0        
C3        C        0.1875        0.314815        0.09185897435897436        0        
C4        C        0.21875        0.259259        0.09185897435897436        0        
C1        C        0.1875        0.351852        0.09185897435897436        0        
C2        C        0.21875        0.407408        0.09185897435897436        0        
C3        C        0.1875        0.42592500000000005        0.09185897435897436        0        
C4        C        0.21875        0.37037        0.09185897435897436        0        
C1        C        0.1875        0.46296300000000007        0.09185897435897436        0        
C2        C        0.21875        0.518519        0.09185897435897436        0        
C3        C        0.1875        0.537037        0.09185897435897436        0        
C4        C        0.21875        0.481481        0.09185897435897436        0        
C1        C        0.1875        0.574075        0.09185897435897436        0        
C2        C        0.21875        0.62963        0.09185897435897436        0        
C3        C        0.1875        0.648148        0.09185897435897436        0        
C4        C        0.21875        0.592592        0.09185897435897436        0        
C_FG        C        0.25        0.018519        0.09185897435897436        0.5        
C2        C        0.28125        0.074075        0.09185897435897436        0        
C3        C        0.25        0.092592        0.09185897435897436        0        
C4        C        0.28125        0.037037        0.09185897435897436        0        
C_FG        C        0.25        0.12963        0.09185897435897436        0.5        
C2        C        0.28125        0.185185        0.09185897435897436        0        
C3        C        0.25        0.203703        0.09185897435897436        0        
C4        C        0.28125        0.148148        0.09185897435897436        0        
C_FG        C        0.25        0.24074099999999998        0.09185897435897436        0.5        
C2        C        0.28125        0.296297        0.09185897435897436        0        
C3        C        0.25        0.314815        0.09185897435897436        0        
C4        C        0.28125        0.259259        0.09185897435897436        0        
C_FG        C        0.25        0.351852        0.09185897435897436        0.5        
C2        C        0.28125        0.407408        0.09185897435897436        0        
C3        C        0.25        0.42592500000000005        0.09185897435897436        0        
C4        C        0.28125        0.37037        0.09185897435897436        0        
C_FG        C        0.25        0.46296300000000007        0.09185897435897436        0.5        
C2        C        0.28125        0.518519        0.09185897435897436        0        
C3        C        0.25        0.537037        0.09185897435897436        0        
C4        C        0.28125        0.481481        0.09185897435897436        0        
C_FG        C        0.25        0.574075        0.09185897435897436        0.5        
C2        C        0.28125        0.62963        0.09185897435897436        0        
C3        C        0.25        0.648148        0.09185897435897436        0        
C4        C        0.28125        0.592592        0.09185897435897436        0        
C1        C        0.3125        0.018519        0.09185897435897436        0        
C2        C        0.34375        0.074075        0.09185897435897436        0        
C3        C        0.3125        0.092592        0.09185897435897436        0        
C4        C        0.34375        0.037037        0.09185897435897436        0        
C1        C        0.3125        0.12963        0.09185897435897436        0        
C2        C        0.34375        0.185185        0.09185897435897436        0        
C3        C        0.3125        0.203703        0.09185897435897436        0        
C4        C        0.34375        0.148148        0.09185897435897436        0        
C1        C        0.3125        0.24074099999999998        0.09185897435897436        0        
C2        C        0.34375        0.296297        0.09185897435897436        0        
C3        C        0.3125        0.314815        0.09185897435897436        0        
C4        C        0.34375        0.259259        0.09185897435897436        0        
C1        C        0.3125        0.351852        0.09185897435897436        0        
C2        C        0.34375        0.407408        0.09185897435897436        0        
C3        C        0.3125        0.42592500000000005        0.09185897435897436        0        
C4        C        0.34375        0.37037        0.09185897435897436        0        
C1        C        0.3125        0.46296300000000007        0.09185897435897436        0        
C2        C        0.34375        0.518519        0.09185897435897436        0        
C3        C        0.3125        0.537037        0.09185897435897436        0        
C4        C        0.34375        0.481481        0.09185897435897436        0        
C1        C        0.3125        0.574075        0.09185897435897436        0        
C2        C        0.34375        0.62963        0.09185897435897436        0        
C3        C        0.3125        0.648148        0.09185897435897436        0        
C4        C        0.34375        0.592592        0.09185897435897436        0        
C1        C        0.375        0.018519        0.09185897435897436        0        
C2        C        0.40625        0.074075        0.09185897435897436        0        
C3        C        0.375        0.092592        0.09185897435897436        0        
C4        C        0.40625        0.037037        0.09185897435897436        0        
C1        C        0.375        0.12963        0.09185897435897436        0        
C2        C        0.40625        0.185185        0.09185897435897436        0        
C3        C        0.375        0.203703        0.09185897435897436        0        
C4        C        0.40625        0.148148        0.09185897435897436        0        
C1        C        0.375        0.24074099999999998        0.09185897435897436        0        
C2        C        0.40625        0.296297        0.09185897435897436        0        
C3        C        0.375        0.314815        0.09185897435897436        0        
C4        C        0.40625        0.259259        0.09185897435897436        0        
C1        C        0.375        0.351852        0.09185897435897436        0        
C2        C        0.40625        0.407408        0.09185897435897436        0        
C3        C        0.375        0.42592500000000005        0.09185897435897436        0        
C4        C        0.40625        0.37037        0.09185897435897436        0        
C1        C        0.375        0.46296300000000007        0.09185897435897436        0        
C2        C        0.40625        0.518519        0.09185897435897436        0        
C3        C        0.375        0.537037        0.09185897435897436        0        
C4        C        0.40625        0.481481        0.09185897435897436        0        
C1        C        0.375        0.574075        0.09185897435897436        0        
C2        C        0.40625        0.62963        0.09185897435897436        0        
C3        C        0.375        0.648148        0.09185897435897436        0        
C4        C        0.40625        0.592592        0.09185897435897436        0        
C1        C        0.4375        0.018519        0.09185897435897436        0        
C2        C        0.46875        0.074075        0.09185897435897436        0        
C3        C        0.4375        0.092592        0.09185897435897436        0        
C4        C        0.46875        0.037037        0.09185897435897436        0        
C1        C        0.4375        0.12963        0.09185897435897436        0        
C2        C        0.46875        0.185185        0.09185897435897436        0        
C3        C        0.4375        0.203703        0.09185897435897436        0        
C4        C        0.46875        0.148148        0.09185897435897436        0        
C1        C        0.4375        0.24074099999999998        0.09185897435897436        0        
C2        C        0.46875        0.296297        0.09185897435897436        0        
C3        C        0.4375        0.314815        0.09185897435897436        0        
C4        C        0.46875        0.259259        0.09185897435897436        0        
C1        C        0.4375        0.351852        0.09185897435897436        0        
C2        C        0.46875        0.407408        0.09185897435897436        0        
C3        C        0.4375        0.42592500000000005        0.09185897435897436        0        
C4        C        0.46875        0.37037        0.09185897435897436        0        
C1        C        0.4375        0.46296300000000007        0.09185897435897436        0        
C2        C        0.46875        0.518519        0.09185897435897436        0        
C3        C        0.4375        0.537037        0.09185897435897436        0        
C4        C        0.46875        0.481481        0.09185897435897436        0        
C1        C        0.4375        0.574075        0.09185897435897436        0        
C2        C        0.46875        0.62963        0.09185897435897436        0        
C3        C        0.4375        0.648148        0.09185897435897436        0        
C4        C        0.46875        0.592592        0.09185897435897436        0        
C1        C        0.5        0.018519        0.09185897435897436        0        
C2        C        0.53125        0.074075        0.09185897435897436        0        
C3        C        0.5        0.092592        0.09185897435897436        0        
C4        C        0.53125        0.037037        0.09185897435897436        0        
C1        C        0.5        0.12963        0.09185897435897436        0        
C2        C        0.53125        0.185185        0.09185897435897436        0        
C3        C        0.5        0.203703        0.09185897435897436        0        
C4        C        0.53125        0.148148        0.09185897435897436        0        
C1        C        0.5        0.24074099999999998        0.09185897435897436        0        
C2        C        0.53125        0.296297        0.09185897435897436        0        
C3        C        0.5        0.314815        0.09185897435897436        0        
C4        C        0.53125        0.259259        0.09185897435897436        0        
C1        C        0.5        0.351852        0.09185897435897436        0        
C2        C        0.53125        0.407408        0.09185897435897436        0        
C3        C        0.5        0.42592500000000005        0.09185897435897436        0        
C4        C        0.53125        0.37037        0.09185897435897436        0        
C1        C        0.5        0.46296300000000007        0.09185897435897436        0        
C2        C        0.53125        0.518519        0.09185897435897436        0        
C3        C        0.5        0.537037        0.09185897435897436        0        
C4        C        0.53125        0.481481        0.09185897435897436        0        
C1        C        0.5        0.574075        0.09185897435897436        0        
C2        C        0.53125        0.62963        0.09185897435897436        0        
C3        C        0.5        0.648148        0.09185897435897436        0        
C4        C        0.53125        0.592592        0.09185897435897436        0        
C1        C        0.5625        0.018519        0.09185897435897436        0        
C2        C        0.59375        0.074075        0.09185897435897436        0        
C3        C        0.5625        0.092592        0.09185897435897436        0        
C4        C        0.59375        0.037037        0.09185897435897436        0        
C1        C        0.5625        0.12963        0.09185897435897436        0        
C2        C        0.59375        0.185185        0.09185897435897436        0        
C3        C        0.5625        0.203703        0.09185897435897436        0        
C4        C        0.59375        0.148148        0.09185897435897436        0        
C1        C        0.5625        0.24074099999999998        0.09185897435897436        0        
C2        C        0.59375        0.296297        0.09185897435897436        0        
C3        C        0.5625        0.314815        0.09185897435897436        0        
C4        C        0.59375        0.259259        0.09185897435897436        0        
C1        C        0.5625        0.351852        0.09185897435897436        0        
C2        C        0.59375        0.407408        0.09185897435897436        0        
C3        C        0.5625        0.42592500000000005        0.09185897435897436        0        
C4        C        0.59375        0.37037        0.09185897435897436        0        
C1        C        0.5625        0.46296300000000007        0.09185897435897436        0        
C2        C        0.59375        0.518519        0.09185897435897436        0        
C3        C        0.5625        0.537037        0.09185897435897436        0        
C4        C        0.59375        0.481481        0.09185897435897436        0        
C1        C        0.5625        0.574075        0.09185897435897436        0        
C2        C        0.59375        0.62963        0.09185897435897436        0        
C3        C        0.5625        0.648148        0.09185897435897436        0        
C4        C        0.59375        0.592592        0.09185897435897436        0        
C1        C        0.625        0.018519        0.09185897435897436        0        
C2        C        0.65625        0.074075        0.09185897435897436        0        
C3        C        0.625        0.092592        0.09185897435897436        0        
C4        C        0.65625        0.037037        0.09185897435897436        0        
C1        C        0.625        0.12963        0.09185897435897436        0        
C2        C        0.65625        0.185185        0.09185897435897436        0        
C3        C        0.625        0.203703        0.09185897435897436        0        
C4        C        0.65625        0.148148        0.09185897435897436        0        
C1        C        0.625        0.24074099999999998        0.09185897435897436        0        
C2        C        0.65625        0.296297        0.09185897435897436        0        
C3        C        0.625        0.314815        0.09185897435897436        0        
C4        C        0.65625        0.259259        0.09185897435897436        0        
C1        C        0.625        0.351852        0.09185897435897436        0        
C2        C        0.65625        0.407408        0.09185897435897436        0        
C3        C        0.625        0.42592500000000005        0.09185897435897436        0        
C4        C        0.65625        0.37037        0.09185897435897436        0        
C1        C        0.625        0.46296300000000007        0.09185897435897436        0        
C2        C        0.65625        0.518519        0.09185897435897436        0        
C3        C        0.625        0.537037        0.09185897435897436        0        
C4        C        0.65625        0.481481        0.09185897435897436        0        
C1        C        0.625        0.574075        0.09185897435897436        0        
C2        C        0.65625        0.62963        0.09185897435897436        0        
C3        C        0.625        0.648148        0.09185897435897436        0        
C4        C        0.65625        0.592592        0.09185897435897436        0        
C1        C        0.6875        0.018519        0.09185897435897436        0        
C2        C        0.71875        0.074075        0.09185897435897436        0        
C3        C        0.6875        0.092592        0.09185897435897436        0        
C4        C        0.71875        0.037037        0.09185897435897436        0        
C1        C        0.6875        0.12963        0.09185897435897436        0        
C2        C        0.71875        0.185185        0.09185897435897436        0        
C3        C        0.6875        0.203703        0.09185897435897436        0        
C4        C        0.71875        0.148148        0.09185897435897436        0        
C1        C        0.6875        0.24074099999999998        0.09185897435897436        0        
C2        C        0.71875        0.296297        0.09185897435897436        0        
C3        C        0.6875        0.314815        0.09185897435897436        0        
C4        C        0.71875        0.259259        0.09185897435897436        0        
C1        C        0.6875        0.351852        0.09185897435897436        0        
C2        C        0.71875        0.407408        0.09185897435897436        0        
C3        C        0.6875        0.42592500000000005        0.09185897435897436        0        
C4        C        0.71875        0.37037        0.09185897435897436        0        
C1        C        0.6875        0.46296300000000007        0.09185897435897436        0        
C2        C        0.71875        0.518519        0.09185897435897436        0        
C3        C        0.6875        0.537037        0.09185897435897436        0        
C4        C        0.71875        0.481481        0.09185897435897436        0        
C1        C        0.6875        0.574075        0.09185897435897436        0        
C2        C        0.71875        0.62963        0.09185897435897436        0        
C3        C        0.6875        0.648148        0.09185897435897436        0        
C4        C        0.71875        0.592592        0.09185897435897436        0        
C_FG        C        0.75        0.018519        0.09185897435897436        0.5        
C2        C        0.78125        0.074075        0.09185897435897436        0        
C3        C        0.75        0.092592        0.09185897435897436        0        
C4        C        0.78125        0.037037        0.09185897435897436        0        
C_FG        C        0.75        0.12963        0.09185897435897436        0.5        
C2        C        0.78125        0.185185        0.09185897435897436        0        
C3        C        0.75        0.203703        0.09185897435897436        0        
C4        C        0.78125        0.148148        0.09185897435897436        0        
C_FG        C        0.75        0.24074099999999998        0.09185897435897436        0.5        
C2        C        0.78125        0.296297        0.09185897435897436        0        
C3        C        0.75        0.314815        0.09185897435897436        0        
C4        C        0.78125        0.259259        0.09185897435897436        0        
C_FG        C        0.75        0.351852        0.09185897435897436        0.5        
C2        C        0.78125        0.407408        0.09185897435897436        0        
C3        C        0.75        0.42592500000000005        0.09185897435897436        0        
C4        C        0.78125        0.37037        0.09185897435897436        0        
C_FG        C        0.75        0.46296300000000007        0.09185897435897436        0.5        
C2        C        0.78125        0.518519        0.09185897435897436        0        
C3        C        0.75        0.537037        0.09185897435897436        0        
C4        C        0.78125        0.481481        0.09185897435897436        0        
C_FG        C        0.75        0.574075        0.09185897435897436        0.5        
C2        C        0.78125        0.62963        0.09185897435897436        0        
C3        C        0.75        0.648148        0.09185897435897436        0        
C4        C        0.78125        0.592592        0.09185897435897436        0        
C1        C        0.8125        0.018519        0.09185897435897436        0        
C2        C        0.84375        0.074075        0.09185897435897436        0        
C3        C        0.8125        0.092592        0.09185897435897436        0        
C4        C        0.84375        0.037037        0.09185897435897436        0        
C1        C        0.8125        0.12963        0.09185897435897436        0        
C2        C        0.84375        0.185185        0.09185897435897436        0        
C3        C        0.8125        0.203703        0.09185897435897436        0        
C4        C        0.84375        0.148148        0.09185897435897436        0        
C1        C        0.8125        0.24074099999999998        0.09185897435897436        0        
C2        C        0.84375        0.296297        0.09185897435897436        0        
C3        C        0.8125        0.314815        0.09185897435897436        0        
C4        C        0.84375        0.259259        0.09185897435897436        0        
C1        C        0.8125        0.351852        0.09185897435897436        0        
C2        C        0.84375        0.407408        0.09185897435897436        0        
C3        C        0.8125        0.42592500000000005        0.09185897435897436        0        
C4        C        0.84375        0.37037        0.09185897435897436        0        
C1        C        0.8125        0.46296300000000007        0.09185897435897436        0        
C2        C        0.84375        0.518519        0.09185897435897436        0        
C3        C        0.8125        0.537037        0.09185897435897436        0        
C4        C        0.84375        0.481481        0.09185897435897436        0        
C1        C        0.8125        0.574075        0.09185897435897436        0        
C2        C        0.84375        0.62963        0.09185897435897436        0        
C3        C        0.8125        0.648148        0.09185897435897436        0        
C4        C        0.84375        0.592592        0.09185897435897436        0        
C1        C        0.875        0.018519        0.09185897435897436        0        
C2        C        0.9062500000000001        0.074075        0.09185897435897436        0        
C3        C        0.875        0.092592        0.09185897435897436        0        
C4        C        0.9062500000000001        0.037037        0.09185897435897436        0        
C1        C        0.875        0.12963        0.09185897435897436        0        
C2        C        0.9062500000000001        0.185185        0.09185897435897436        0        
C3        C        0.875        0.203703        0.09185897435897436        0        
C4        C        0.9062500000000001        0.148148        0.09185897435897436        0        
C1        C        0.875        0.24074099999999998        0.09185897435897436        0        
C2        C        0.9062500000000001        0.296297        0.09185897435897436        0        
C3        C        0.875        0.314815        0.09185897435897436        0        
C4        C        0.9062500000000001        0.259259        0.09185897435897436        0        
C1        C        0.875        0.351852        0.09185897435897436        0        
C2        C        0.9062500000000001        0.407408        0.09185897435897436        0        
C3        C        0.875        0.42592500000000005        0.09185897435897436        0        
C4        C        0.9062500000000001        0.37037        0.09185897435897436        0        
C1        C        0.875        0.46296300000000007        0.09185897435897436        0        
C2        C        0.9062500000000001        0.518519        0.09185897435897436        0        
C3        C        0.875        0.537037        0.09185897435897436        0        
C4        C        0.9062500000000001        0.481481        0.09185897435897436        0        
C1        C        0.875        0.574075        0.09185897435897436        0        
C2        C        0.9062500000000001        0.62963        0.09185897435897436        0        
C3        C        0.875        0.648148        0.09185897435897436        0        
C4        C        0.9062500000000001        0.592592        0.09185897435897436        0        
C1        C        0.9375        0.018519        0.09185897435897436        0        
C2        C        0.9687500000000001        0.074075        0.09185897435897436        0        
C3        C        0.9375        0.092592        0.09185897435897436        0        
C4        C        0.9687500000000001        0.037037        0.09185897435897436        0        
C1        C        0.9375        0.12963        0.09185897435897436        0        
C2        C        0.9687500000000001        0.185185        0.09185897435897436        0        
C3        C        0.9375        0.203703        0.09185897435897436        0        
C4        C        0.9687500000000001        0.148148        0.09185897435897436        0        
C1        C        0.9375        0.24074099999999998        0.09185897435897436        0        
C2        C        0.9687500000000001        0.296297        0.09185897435897436        0        
C3        C        0.9375        0.314815        0.09185897435897436        0        
C4        C        0.9687500000000001        0.259259        0.09185897435897436        0        
C1        C        0.9375        0.351852        0.09185897435897436        0        
C2        C        0.9687500000000001        0.407408        0.09185897435897436        0        
C3        C        0.9375        0.42592500000000005        0.09185897435897436        0        
C4        C        0.9687500000000001        0.37037        0.09185897435897436        0        
C1        C        0.9375        0.46296300000000007        0.09185897435897436        0        
C2        C        0.9687500000000001        0.518519        0.09185897435897436        0        
C3        C        0.9375        0.537037        0.09185897435897436        0        
C4        C        0.9687500000000001        0.481481        0.09185897435897436        0        
C1        C        0.9375        0.574075        0.09185897435897436        0        
C2        C        0.9687500000000001        0.62963        0.09185897435897436        0        
C3        C        0.9375        0.648148        0.09185897435897436        0        
C4        C        0.9687500000000001        0.592592        0.09185897435897436        0        
C_FG        C        0.0        0.685186        0.09185897435897436        0.5        
C1        C        0.0625        0.685186        0.09185897435897436        0        
C1        C        0.125        0.685186        0.09185897435897436        0        
C1        C        0.1875        0.685186        0.09185897435897436        0        
C_FG        C        0.25        0.685186        0.09185897435897436        0.5        
C1        C        0.3125        0.685186        0.09185897435897436        0        
C1        C        0.375        0.685186        0.09185897435897436        0        
C1        C        0.4375        0.685186        0.09185897435897436        0        
C1        C        0.5        0.685186        0.09185897435897436        0        
C1        C        0.5625        0.685186        0.09185897435897436        0        
C1        C        0.625        0.685186        0.09185897435897436        0        
C1        C        0.6875        0.685186        0.09185897435897436        0        
C_FG        C        0.75        0.685186        0.09185897435897436        0.5        
C1        C        0.8125        0.685186        0.09185897435897436        0        
C1        C        0.875        0.685186        0.09185897435897436        0        
C1        C        0.9375        0.685186        0.09185897435897436        0        
C2        C        0.03125        0.740741        0.09185897435897436        0        
C2        C        0.09375        0.740741        0.09185897435897436        0        
C2        C        0.15625        0.740741        0.09185897435897436        0        
C2        C        0.21875        0.740741        0.09185897435897436        0        
C2        C        0.28125        0.740741        0.09185897435897436        0        
C2        C        0.34375        0.740741        0.09185897435897436        0        
C2        C        0.40625        0.740741        0.09185897435897436        0        
C2        C        0.46875        0.740741        0.09185897435897436        0        
C2        C        0.53125        0.740741        0.09185897435897436        0        
C2        C        0.59375        0.740741        0.09185897435897436        0        
C2        C        0.65625        0.740741        0.09185897435897436        0        
C2        C        0.71875        0.740741        0.09185897435897436        0        
C2        C        0.78125        0.740741        0.09185897435897436        0        
C2        C        0.84375        0.740741        0.09185897435897436        0        
C2        C        0.9062500000000001        0.740741        0.09185897435897436        0        
C2        C        0.9687500000000001        0.740741        0.09185897435897436        0        
C3        C        0.0        0.759259        0.09185897435897436        0        
C3        C        0.0625        0.759259        0.09185897435897436        0        
C3        C        0.125        0.759259        0.09185897435897436        0        
C3        C        0.1875        0.759259        0.09185897435897436        0        
C3        C        0.25        0.759259        0.09185897435897436        0        
C3        C        0.3125        0.759259        0.09185897435897436        0        
C3        C        0.375        0.759259        0.09185897435897436        0        
C3        C        0.4375        0.759259        0.09185897435897436        0        
C3        C        0.5        0.759259        0.09185897435897436        0        
C3        C        0.5625        0.759259        0.09185897435897436        0        
C3        C        0.625        0.759259        0.09185897435897436        0        
C3        C        0.6875        0.759259        0.09185897435897436        0        
C3        C        0.75        0.759259        0.09185897435897436        0        
C3        C        0.8125        0.759259        0.09185897435897436        0        
C3        C        0.875        0.759259        0.09185897435897436        0        
C3        C        0.9375        0.759259        0.09185897435897436        0        
C4        C        0.03125        0.703703        0.09185897435897436        0        
C4        C        0.09375        0.703703        0.09185897435897436        0        
C4        C        0.15625        0.703703        0.09185897435897436        0        
C4        C        0.21875        0.703703        0.09185897435897436        0        
C4        C        0.28125        0.703703        0.09185897435897436        0        
C4        C        0.34375        0.703703        0.09185897435897436        0        
C4        C        0.40625        0.703703        0.09185897435897436        0        
C4        C        0.46875        0.703703        0.09185897435897436        0        
C4        C        0.53125        0.703703        0.09185897435897436        0        
C4        C        0.59375        0.703703        0.09185897435897436        0        
C4        C        0.65625        0.703703        0.09185897435897436        0        
C4        C        0.71875        0.703703        0.09185897435897436        0        
C4        C        0.78125        0.703703        0.09185897435897436        0        
C4        C        0.84375        0.703703        0.09185897435897436        0        
C4        C        0.9062500000000001        0.703703        0.09185897435897436        0        
C4        C        0.9687500000000001        0.703703        0.09185897435897436        0        
C_FG        C        0.0        0.796297        0.09185897435897436        0.5        
C1        C        0.0625        0.796297        0.09185897435897436        0        
C1        C        0.125        0.796297        0.09185897435897436        0        
C1        C        0.1875        0.796297        0.09185897435897436        0        
C_FG        C        0.25        0.796297        0.09185897435897436        0.5        
C1        C        0.3125        0.796297        0.09185897435897436        0        
C1        C        0.375        0.796297        0.09185897435897436        0        
C1        C        0.4375        0.796297        0.09185897435897436        0        
C1        C        0.5        0.796297        0.09185897435897436        0        
C1        C        0.5625        0.796297        0.09185897435897436        0        
C1        C        0.625        0.796297        0.09185897435897436        0        
C1        C        0.6875        0.796297        0.09185897435897436        0        
C_FG        C        0.75        0.796297        0.09185897435897436        0.5        
C1        C        0.8125        0.796297        0.09185897435897436        0        
C1        C        0.875        0.796297        0.09185897435897436        0        
C1        C        0.9375        0.796297        0.09185897435897436        0        
C2        C        0.03125        0.851852        0.09185897435897436        0        
C2        C        0.09375        0.851852        0.09185897435897436        0        
C2        C        0.15625        0.851852        0.09185897435897436        0        
C2        C        0.21875        0.851852        0.09185897435897436        0        
C2        C        0.28125        0.851852        0.09185897435897436        0        
C2        C        0.34375        0.851852        0.09185897435897436        0        
C2        C        0.40625        0.851852        0.09185897435897436        0        
C2        C        0.46875        0.851852        0.09185897435897436        0        
C2        C        0.53125        0.851852        0.09185897435897436        0        
C2        C        0.59375        0.851852        0.09185897435897436        0        
C2        C        0.65625        0.851852        0.09185897435897436        0        
C2        C        0.71875        0.851852        0.09185897435897436        0        
C2        C        0.78125        0.851852        0.09185897435897436        0        
C2        C        0.84375        0.851852        0.09185897435897436        0        
C2        C        0.9062500000000001        0.851852        0.09185897435897436        0        
C2        C        0.9687500000000001        0.851852        0.09185897435897436        0        
C3        C        0.0        0.87037        0.09185897435897436        0        
C3        C        0.0625        0.87037        0.09185897435897436        0        
C3        C        0.125        0.87037        0.09185897435897436        0        
C3        C        0.1875        0.87037        0.09185897435897436        0        
C3        C        0.25        0.87037        0.09185897435897436        0        
C3        C        0.3125        0.87037        0.09185897435897436        0        
C3        C        0.375        0.87037        0.09185897435897436        0        
C3        C        0.4375        0.87037        0.09185897435897436        0        
C3        C        0.5        0.87037        0.09185897435897436        0        
C3        C        0.5625        0.87037        0.09185897435897436        0        
C3        C        0.625        0.87037        0.09185897435897436        0        
C3        C        0.6875        0.87037        0.09185897435897436        0        
C3        C        0.75        0.87037        0.09185897435897436        0        
C3        C        0.8125        0.87037        0.09185897435897436        0        
C3        C        0.875        0.87037        0.09185897435897436        0        
C3        C        0.9375        0.87037        0.09185897435897436        0        
C4        C        0.03125        0.814814        0.09185897435897436        0        
C4        C        0.09375        0.814814        0.09185897435897436        0        
C4        C        0.15625        0.814814        0.09185897435897436        0        
C4        C        0.21875        0.814814        0.09185897435897436        0        
C4        C        0.28125        0.814814        0.09185897435897436        0        
C4        C        0.34375        0.814814        0.09185897435897436        0        
C4        C        0.40625        0.814814        0.09185897435897436        0        
C4        C        0.46875        0.814814        0.09185897435897436        0        
C4        C        0.53125        0.814814        0.09185897435897436        0        
C4        C        0.59375        0.814814        0.09185897435897436        0        
C4        C        0.65625        0.814814        0.09185897435897436        0        
C4        C        0.71875        0.814814        0.09185897435897436        0        
C4        C        0.78125        0.814814        0.09185897435897436        0        
C4        C        0.84375        0.814814        0.09185897435897436        0        
C4        C        0.9062500000000001        0.814814        0.09185897435897436        0        
C4        C        0.9687500000000001        0.814814        0.09185897435897436        0        
C_FG        C        0.0        0.907408        0.09185897435897436        0.5        
C1        C        0.0625        0.907408        0.09185897435897436        0        
C1        C        0.125        0.907408        0.09185897435897436        0        
C1        C        0.1875        0.907408        0.09185897435897436        0        
C_FG        C        0.25        0.907408        0.09185897435897436        0.5        
C1        C        0.3125        0.907408        0.09185897435897436        0        
C1        C        0.375        0.907408        0.09185897435897436        0        
C1        C        0.4375        0.907408        0.09185897435897436        0        
C1        C        0.5        0.907408        0.09185897435897436        0        
C1        C        0.5625        0.907408        0.09185897435897436        0        
C1        C        0.625        0.907408        0.09185897435897436        0        
C1        C        0.6875        0.907408        0.09185897435897436        0        
C_FG        C        0.75        0.907408        0.09185897435897436        0.5        
C1        C        0.8125        0.907408        0.09185897435897436        0        
C1        C        0.875        0.907408        0.09185897435897436        0        
C1        C        0.9375        0.907408        0.09185897435897436        0        
C2        C        0.03125        0.962963        0.09185897435897436        0        
C2        C        0.09375        0.962963        0.09185897435897436        0        
C2        C        0.15625        0.962963        0.09185897435897436        0        
C2        C        0.21875        0.962963        0.09185897435897436        0        
C2        C        0.28125        0.962963        0.09185897435897436        0        
C2        C        0.34375        0.962963        0.09185897435897436        0        
C2        C        0.40625        0.962963        0.09185897435897436        0        
C2        C        0.46875        0.962963        0.09185897435897436        0        
C2        C        0.53125        0.962963        0.09185897435897436        0        
C2        C        0.59375        0.962963        0.09185897435897436        0        
C2        C        0.65625        0.962963        0.09185897435897436        0        
C2        C        0.71875        0.962963        0.09185897435897436        0        
C2        C        0.78125        0.962963        0.09185897435897436        0        
C2        C        0.84375        0.962963        0.09185897435897436        0        
C2        C        0.9062500000000001        0.962963        0.09185897435897436        0        
C2        C        0.9687500000000001        0.962963        0.09185897435897436        0        
C3        C        0.0        0.9814809999999999        0.09185897435897436        0        
C3        C        0.0625        0.9814809999999999        0.09185897435897436        0        
C3        C        0.125        0.9814809999999999        0.09185897435897436        0        
C3        C        0.1875        0.9814809999999999        0.09185897435897436        0        
C3        C        0.25        0.9814809999999999        0.09185897435897436        0        
C3        C        0.3125        0.9814809999999999        0.09185897435897436        0        
C3        C        0.375        0.9814809999999999        0.09185897435897436        0        
C3        C        0.4375        0.9814809999999999        0.09185897435897436        0        
C3        C        0.5        0.9814809999999999        0.09185897435897436        0        
C3        C        0.5625        0.9814809999999999        0.09185897435897436        0        
C3        C        0.625        0.9814809999999999        0.09185897435897436        0        
C3        C        0.6875        0.9814809999999999        0.09185897435897436        0        
C3        C        0.75        0.9814809999999999        0.09185897435897436        0        
C3        C        0.8125        0.9814809999999999        0.09185897435897436        0        
C3        C        0.875        0.9814809999999999        0.09185897435897436        0        
C3        C        0.9375        0.9814809999999999        0.09185897435897436        0        
C4        C        0.03125        0.925925        0.09185897435897436        0        
C4        C        0.09375        0.925925        0.09185897435897436        0        
C4        C        0.15625        0.925925        0.09185897435897436        0        
C4        C        0.21875        0.925925        0.09185897435897436        0        
C4        C        0.28125        0.925925        0.09185897435897436        0        
C4        C        0.34375        0.925925        0.09185897435897436        0        
C4        C        0.40625        0.925925        0.09185897435897436        0        
C4        C        0.46875        0.925925        0.09185897435897436        0        
C4        C        0.53125        0.925925        0.09185897435897436        0        
C4        C        0.59375        0.925925        0.09185897435897436        0        
C4        C        0.65625        0.925925        0.09185897435897436        0        
C4        C        0.71875        0.925925        0.09185897435897436        0        
C4        C        0.78125        0.925925        0.09185897435897436        0        
C4        C        0.84375        0.925925        0.09185897435897436        0        
C4        C        0.9062500000000001        0.925925        0.09185897435897436        0        
C4        C        0.9687500000000001        0.925925        0.09185897435897436        0        
C1        C        0.0        0.018519        0.3066029743589743        0        
C2        C        0.03125        0.074075        0.3066029743589743        0        
C3        C        0.0        0.092592        0.3066029743589743        0        
C4        C        0.03125        0.037037        0.3066029743589743        0        
C1        C        0.0        0.12963        0.3066029743589743        0        
C2        C        0.03125        0.185185        0.3066029743589743        0        
C3        C        0.0        0.203703        0.3066029743589743        0        
C4        C        0.03125        0.148148        0.3066029743589743        0        
C1        C        0.0        0.24074099999999998        0.3066029743589743        0        
C2        C        0.03125        0.296297        0.3066029743589743        0        
C3        C        0.0        0.314815        0.3066029743589743        0        
C4        C        0.03125        0.259259        0.3066029743589743        0        
C1        C        0.0        0.351852        0.3066029743589743        0        
C2        C        0.03125        0.407408        0.3066029743589743        0        
C3        C        0.0        0.42592500000000005        0.3066029743589743        0        
C4        C        0.03125        0.37037        0.3066029743589743        0        
C1        C        0.0        0.46296300000000007        0.3066029743589743        0        
C2        C        0.03125        0.518519        0.3066029743589743        0        
C3        C        0.0        0.537037        0.3066029743589743        0        
C4        C        0.03125        0.481481        0.3066029743589743        0        
C1        C        0.0        0.574075        0.3066029743589743        0        
C2        C        0.03125        0.62963        0.3066029743589743        0        
C3        C        0.0        0.648148        0.3066029743589743        0        
C4        C        0.03125        0.592592        0.3066029743589743        0        
C1        C        0.0625        0.018519        0.3066029743589743        0        
C2        C        0.09375        0.074075        0.3066029743589743        0        
C3        C        0.0625        0.092592        0.3066029743589743        0        
C4        C        0.09375        0.037037        0.3066029743589743        0        
C1        C        0.0625        0.12963        0.3066029743589743        0        
C2        C        0.09375        0.185185        0.3066029743589743        0        
C3        C        0.0625        0.203703        0.3066029743589743        0        
C4        C        0.09375        0.148148        0.3066029743589743        0        
C1        C        0.0625        0.24074099999999998        0.3066029743589743        0        
C2        C        0.09375        0.296297        0.3066029743589743        0        
C3        C        0.0625        0.314815        0.3066029743589743        0        
C4        C        0.09375        0.259259        0.3066029743589743        0        
C1        C        0.0625        0.351852        0.3066029743589743        0        
C2        C        0.09375        0.407408        0.3066029743589743        0        
C3        C        0.0625        0.42592500000000005        0.3066029743589743        0        
C4        C        0.09375        0.37037        0.3066029743589743        0        
C1        C        0.0625        0.46296300000000007        0.3066029743589743        0        
C2        C        0.09375        0.518519        0.3066029743589743        0        
C3        C        0.0625        0.537037        0.3066029743589743        0        
C4        C        0.09375        0.481481        0.3066029743589743        0        
C1        C        0.0625        0.574075        0.3066029743589743        0        
C2        C        0.09375        0.62963        0.3066029743589743        0        
C3        C        0.0625        0.648148        0.3066029743589743        0        
C4        C        0.09375        0.592592        0.3066029743589743        0        
C1        C        0.125        0.018519        0.3066029743589743        0        
C2        C        0.15625        0.074075        0.3066029743589743        0        
C3        C        0.125        0.092592        0.3066029743589743        0        
C4        C        0.15625        0.037037        0.3066029743589743        0        
C1        C        0.125        0.12963        0.3066029743589743        0        
C2        C        0.15625        0.185185        0.3066029743589743        0        
C3        C        0.125        0.203703        0.3066029743589743        0        
C4        C        0.15625        0.148148        0.3066029743589743        0        
C1        C        0.125        0.24074099999999998        0.3066029743589743        0        
C2        C        0.15625        0.296297        0.3066029743589743        0        
C3        C        0.125        0.314815        0.3066029743589743        0        
C4        C        0.15625        0.259259        0.3066029743589743        0        
C1        C        0.125        0.351852        0.3066029743589743        0        
C2        C        0.15625        0.407408        0.3066029743589743        0        
C3        C        0.125        0.42592500000000005        0.3066029743589743        0        
C4        C        0.15625        0.37037        0.3066029743589743        0        
C1        C        0.125        0.46296300000000007        0.3066029743589743        0        
C2        C        0.15625        0.518519        0.3066029743589743        0        
C3        C        0.125        0.537037        0.3066029743589743        0        
C4        C        0.15625        0.481481        0.3066029743589743        0        
C1        C        0.125        0.574075        0.3066029743589743        0        
C2        C        0.15625        0.62963        0.3066029743589743        0        
C3        C        0.125        0.648148        0.3066029743589743        0        
C4        C        0.15625        0.592592        0.3066029743589743        0        
C1        C        0.1875        0.018519        0.3066029743589743        0        
C2        C        0.21875        0.074075        0.3066029743589743        0        
C3        C        0.1875        0.092592        0.3066029743589743        0        
C4        C        0.21875        0.037037        0.3066029743589743        0        
C1        C        0.1875        0.12963        0.3066029743589743        0        
C2        C        0.21875        0.185185        0.3066029743589743        0        
C3        C        0.1875        0.203703        0.3066029743589743        0        
C4        C        0.21875        0.148148        0.3066029743589743        0        
C1        C        0.1875        0.24074099999999998        0.3066029743589743        0        
C2        C        0.21875        0.296297        0.3066029743589743        0        
C3        C        0.1875        0.314815        0.3066029743589743        0        
C4        C        0.21875        0.259259        0.3066029743589743        0        
C1        C        0.1875        0.351852        0.3066029743589743        0        
C2        C        0.21875        0.407408        0.3066029743589743        0        
C3        C        0.1875        0.42592500000000005        0.3066029743589743        0        
C4        C        0.21875        0.37037        0.3066029743589743        0        
C1        C        0.1875        0.46296300000000007        0.3066029743589743        0        
C2        C        0.21875        0.518519        0.3066029743589743        0        
C3        C        0.1875        0.537037        0.3066029743589743        0        
C4        C        0.21875        0.481481        0.3066029743589743        0        
C1        C        0.1875        0.574075        0.3066029743589743        0        
C2        C        0.21875        0.62963        0.3066029743589743        0        
C3        C        0.1875        0.648148        0.3066029743589743        0        
C4        C        0.21875        0.592592        0.3066029743589743        0        
C1        C        0.25        0.018519        0.3066029743589743        0        
C2        C        0.28125        0.074075        0.3066029743589743        0        
C3        C        0.25        0.092592        0.3066029743589743        0        
C4        C        0.28125        0.037037        0.3066029743589743        0        
C1        C        0.25        0.12963        0.3066029743589743        0        
C2        C        0.28125        0.185185        0.3066029743589743        0        
C3        C        0.25        0.203703        0.3066029743589743        0        
C4        C        0.28125        0.148148        0.3066029743589743        0        
C1        C        0.25        0.24074099999999998        0.3066029743589743        0        
C2        C        0.28125        0.296297        0.3066029743589743        0        
C3        C        0.25        0.314815        0.3066029743589743        0        
C4        C        0.28125        0.259259        0.3066029743589743        0        
C1        C        0.25        0.351852        0.3066029743589743        0        
C2        C        0.28125        0.407408        0.3066029743589743        0        
C3        C        0.25        0.42592500000000005        0.3066029743589743        0        
C4        C        0.28125        0.37037        0.3066029743589743        0        
C1        C        0.25        0.46296300000000007        0.3066029743589743        0        
C2        C        0.28125        0.518519        0.3066029743589743        0        
C3        C        0.25        0.537037        0.3066029743589743        0        
C4        C        0.28125        0.481481        0.3066029743589743        0        
C1        C        0.25        0.574075        0.3066029743589743        0        
C2        C        0.28125        0.62963        0.3066029743589743        0        
C3        C        0.25        0.648148        0.3066029743589743        0        
C4        C        0.28125        0.592592        0.3066029743589743        0        
C1        C        0.3125        0.018519        0.3066029743589743        0        
C2        C        0.34375        0.074075        0.3066029743589743        0        
C3        C        0.3125        0.092592        0.3066029743589743        0        
C4        C        0.34375        0.037037        0.3066029743589743        0        
C1        C        0.3125        0.12963        0.3066029743589743        0        
C2        C        0.34375        0.185185        0.3066029743589743        0        
C3        C        0.3125        0.203703        0.3066029743589743        0        
C4        C        0.34375        0.148148        0.3066029743589743        0        
C1        C        0.3125        0.24074099999999998        0.3066029743589743        0        
C2        C        0.34375        0.296297        0.3066029743589743        0        
C3        C        0.3125        0.314815        0.3066029743589743        0        
C4        C        0.34375        0.259259        0.3066029743589743        0        
C1        C        0.3125        0.351852        0.3066029743589743        0        
C2        C        0.34375        0.407408        0.3066029743589743        0        
C3        C        0.3125        0.42592500000000005        0.3066029743589743        0        
C4        C        0.34375        0.37037        0.3066029743589743        0        
C1        C        0.3125        0.46296300000000007        0.3066029743589743        0        
C2        C        0.34375        0.518519        0.3066029743589743        0        
C3        C        0.3125        0.537037        0.3066029743589743        0        
C4        C        0.34375        0.481481        0.3066029743589743        0        
C1        C        0.3125        0.574075        0.3066029743589743        0        
C2        C        0.34375        0.62963        0.3066029743589743        0        
C3        C        0.3125        0.648148        0.3066029743589743        0        
C4        C        0.34375        0.592592        0.3066029743589743        0        
C1        C        0.375        0.018519        0.3066029743589743        0        
C2        C        0.40625        0.074075        0.3066029743589743        0        
C3        C        0.375        0.092592        0.3066029743589743        0        
C4        C        0.40625        0.037037        0.3066029743589743        0        
C1        C        0.375        0.12963        0.3066029743589743        0        
C2        C        0.40625        0.185185        0.3066029743589743        0        
C3        C        0.375        0.203703        0.3066029743589743        0        
C4        C        0.40625        0.148148        0.3066029743589743        0        
C1        C        0.375        0.24074099999999998        0.3066029743589743        0        
C2        C        0.40625        0.296297        0.3066029743589743        0        
C3        C        0.375        0.314815        0.3066029743589743        0        
C4        C        0.40625        0.259259        0.3066029743589743        0        
C1        C        0.375        0.351852        0.3066029743589743        0        
C2        C        0.40625        0.407408        0.3066029743589743        0        
C3        C        0.375        0.42592500000000005        0.3066029743589743        0        
C4        C        0.40625        0.37037        0.3066029743589743        0        
C1        C        0.375        0.46296300000000007        0.3066029743589743        0        
C2        C        0.40625        0.518519        0.3066029743589743        0        
C3        C        0.375        0.537037        0.3066029743589743        0        
C4        C        0.40625        0.481481        0.3066029743589743        0        
C1        C        0.375        0.574075        0.3066029743589743        0        
C2        C        0.40625        0.62963        0.3066029743589743        0        
C3        C        0.375        0.648148        0.3066029743589743        0        
C4        C        0.40625        0.592592        0.3066029743589743        0        
C1        C        0.4375        0.018519        0.3066029743589743        0        
C2        C        0.46875        0.074075        0.3066029743589743        0        
C3        C        0.4375        0.092592        0.3066029743589743        0        
C4        C        0.46875        0.037037        0.3066029743589743        0        
C1        C        0.4375        0.12963        0.3066029743589743        0        
C2        C        0.46875        0.185185        0.3066029743589743        0        
C3        C        0.4375        0.203703        0.3066029743589743        0        
C4        C        0.46875        0.148148        0.3066029743589743        0        
C1        C        0.4375        0.24074099999999998        0.3066029743589743        0        
C2        C        0.46875        0.296297        0.3066029743589743        0        
C3        C        0.4375        0.314815        0.3066029743589743        0        
C4        C        0.46875        0.259259        0.3066029743589743        0        
C1        C        0.4375        0.351852        0.3066029743589743        0        
C2        C        0.46875        0.407408        0.3066029743589743        0        
C3        C        0.4375        0.42592500000000005        0.3066029743589743        0        
C4        C        0.46875        0.37037        0.3066029743589743        0        
C1        C        0.4375        0.46296300000000007        0.3066029743589743        0        
C2        C        0.46875        0.518519        0.3066029743589743        0        
C3        C        0.4375        0.537037        0.3066029743589743        0        
C4        C        0.46875        0.481481        0.3066029743589743        0        
C1        C        0.4375        0.574075        0.3066029743589743        0        
C2        C        0.46875        0.62963        0.3066029743589743        0        
C3        C        0.4375        0.648148        0.3066029743589743        0        
C4        C        0.46875        0.592592        0.3066029743589743        0        
C1        C        0.5        0.018519        0.3066029743589743        0        
C2        C        0.53125        0.074075        0.3066029743589743        0        
C3        C        0.5        0.092592        0.3066029743589743        0        
C4        C        0.53125        0.037037        0.3066029743589743        0        
C1        C        0.5        0.12963        0.3066029743589743        0        
C2        C        0.53125        0.185185        0.3066029743589743        0        
C3        C        0.5        0.203703        0.3066029743589743        0        
C4        C        0.53125        0.148148        0.3066029743589743        0        
C1        C        0.5        0.24074099999999998        0.3066029743589743        0        
C2        C        0.53125        0.296297        0.3066029743589743        0        
C3        C        0.5        0.314815        0.3066029743589743        0        
C4        C        0.53125        0.259259        0.3066029743589743        0        
C1        C        0.5        0.351852        0.3066029743589743        0        
C2        C        0.53125        0.407408        0.3066029743589743        0        
C3        C        0.5        0.42592500000000005        0.3066029743589743        0        
C4        C        0.53125        0.37037        0.3066029743589743        0        
C1        C        0.5        0.46296300000000007        0.3066029743589743        0        
C2        C        0.53125        0.518519        0.3066029743589743        0        
C3        C        0.5        0.537037        0.3066029743589743        0        
C4        C        0.53125        0.481481        0.3066029743589743        0        
C1        C        0.5        0.574075        0.3066029743589743        0        
C2        C        0.53125        0.62963        0.3066029743589743        0        
C3        C        0.5        0.648148        0.3066029743589743        0        
C4        C        0.53125        0.592592        0.3066029743589743        0        
C1        C        0.5625        0.018519        0.3066029743589743        0        
C2        C        0.59375        0.074075        0.3066029743589743        0        
C3        C        0.5625        0.092592        0.3066029743589743        0        
C4        C        0.59375        0.037037        0.3066029743589743        0        
C1        C        0.5625        0.12963        0.3066029743589743        0        
C2        C        0.59375        0.185185        0.3066029743589743        0        
C3        C        0.5625        0.203703        0.3066029743589743        0        
C4        C        0.59375        0.148148        0.3066029743589743        0        
C1        C        0.5625        0.24074099999999998        0.3066029743589743        0        
C2        C        0.59375        0.296297        0.3066029743589743        0        
C3        C        0.5625        0.314815        0.3066029743589743        0        
C4        C        0.59375        0.259259        0.3066029743589743        0        
C1        C        0.5625        0.351852        0.3066029743589743        0        
C2        C        0.59375        0.407408        0.3066029743589743        0        
C3        C        0.5625        0.42592500000000005        0.3066029743589743        0        
C4        C        0.59375        0.37037        0.3066029743589743        0        
C1        C        0.5625        0.46296300000000007        0.3066029743589743        0        
C2        C        0.59375        0.518519        0.3066029743589743        0        
C3        C        0.5625        0.537037        0.3066029743589743        0        
C4        C        0.59375        0.481481        0.3066029743589743        0        
C1        C        0.5625        0.574075        0.3066029743589743        0        
C2        C        0.59375        0.62963        0.3066029743589743        0        
C3        C        0.5625        0.648148        0.3066029743589743        0        
C4        C        0.59375        0.592592        0.3066029743589743        0        
C1        C        0.625        0.018519        0.3066029743589743        0        
C2        C        0.65625        0.074075        0.3066029743589743        0        
C3        C        0.625        0.092592        0.3066029743589743        0        
C4        C        0.65625        0.037037        0.3066029743589743        0        
C1        C        0.625        0.12963        0.3066029743589743        0        
C2        C        0.65625        0.185185        0.3066029743589743        0        
C3        C        0.625        0.203703        0.3066029743589743        0        
C4        C        0.65625        0.148148        0.3066029743589743        0        
C1        C        0.625        0.24074099999999998        0.3066029743589743        0        
C2        C        0.65625        0.296297        0.3066029743589743        0        
C3        C        0.625        0.314815        0.3066029743589743        0        
C4        C        0.65625        0.259259        0.3066029743589743        0        
C1        C        0.625        0.351852        0.3066029743589743        0        
C2        C        0.65625        0.407408        0.3066029743589743        0        
C3        C        0.625        0.42592500000000005        0.3066029743589743        0        
C4        C        0.65625        0.37037        0.3066029743589743        0        
C1        C        0.625        0.46296300000000007        0.3066029743589743        0        
C2        C        0.65625        0.518519        0.3066029743589743        0        
C3        C        0.625        0.537037        0.3066029743589743        0        
C4        C        0.65625        0.481481        0.3066029743589743        0        
C1        C        0.625        0.574075        0.3066029743589743        0        
C2        C        0.65625        0.62963        0.3066029743589743        0        
C3        C        0.625        0.648148        0.3066029743589743        0        
C4        C        0.65625        0.592592        0.3066029743589743        0        
C1        C        0.6875        0.018519        0.3066029743589743        0        
C2        C        0.71875        0.074075        0.3066029743589743        0        
C3        C        0.6875        0.092592        0.3066029743589743        0        
C4        C        0.71875        0.037037        0.3066029743589743        0        
C1        C        0.6875        0.12963        0.3066029743589743        0        
C2        C        0.71875        0.185185        0.3066029743589743        0        
C3        C        0.6875        0.203703        0.3066029743589743        0        
C4        C        0.71875        0.148148        0.3066029743589743        0        
C1        C        0.6875        0.24074099999999998        0.3066029743589743        0        
C2        C        0.71875        0.296297        0.3066029743589743        0        
C3        C        0.6875        0.314815        0.3066029743589743        0        
C4        C        0.71875        0.259259        0.3066029743589743        0        
C1        C        0.6875        0.351852        0.3066029743589743        0        
C2        C        0.71875        0.407408        0.3066029743589743        0        
C3        C        0.6875        0.42592500000000005        0.3066029743589743        0        
C4        C        0.71875        0.37037        0.3066029743589743        0        
C1        C        0.6875        0.46296300000000007        0.3066029743589743        0        
C2        C        0.71875        0.518519        0.3066029743589743        0        
C3        C        0.6875        0.537037        0.3066029743589743        0        
C4        C        0.71875        0.481481        0.3066029743589743        0        
C1        C        0.6875        0.574075        0.3066029743589743        0        
C2        C        0.71875        0.62963        0.3066029743589743        0        
C3        C        0.6875        0.648148        0.3066029743589743        0        
C4        C        0.71875        0.592592        0.3066029743589743        0        
C1        C        0.75        0.018519        0.3066029743589743        0        
C2        C        0.78125        0.074075        0.3066029743589743        0        
C3        C        0.75        0.092592        0.3066029743589743        0        
C4        C        0.78125        0.037037        0.3066029743589743        0        
C1        C        0.75        0.12963        0.3066029743589743        0        
C2        C        0.78125        0.185185        0.3066029743589743        0        
C3        C        0.75        0.203703        0.3066029743589743        0        
C4        C        0.78125        0.148148        0.3066029743589743        0        
C1        C        0.75        0.24074099999999998        0.3066029743589743        0        
C2        C        0.78125        0.296297        0.3066029743589743        0        
C3        C        0.75        0.314815        0.3066029743589743        0        
C4        C        0.78125        0.259259        0.3066029743589743        0        
C1        C        0.75        0.351852        0.3066029743589743        0        
C2        C        0.78125        0.407408        0.3066029743589743        0        
C3        C        0.75        0.42592500000000005        0.3066029743589743        0        
C4        C        0.78125        0.37037        0.3066029743589743        0        
C1        C        0.75        0.46296300000000007        0.3066029743589743        0        
C2        C        0.78125        0.518519        0.3066029743589743        0        
C3        C        0.75        0.537037        0.3066029743589743        0        
C4        C        0.78125        0.481481        0.3066029743589743        0        
C1        C        0.75        0.574075        0.3066029743589743        0        
C2        C        0.78125        0.62963        0.3066029743589743        0        
C3        C        0.75        0.648148        0.3066029743589743        0        
C4        C        0.78125        0.592592        0.3066029743589743        0        
C1        C        0.8125        0.018519        0.3066029743589743        0        
C2        C        0.84375        0.074075        0.3066029743589743        0        
C3        C        0.8125        0.092592        0.3066029743589743        0        
C4        C        0.84375        0.037037        0.3066029743589743        0        
C1        C        0.8125        0.12963        0.3066029743589743        0        
C2        C        0.84375        0.185185        0.3066029743589743        0        
C3        C        0.8125        0.203703        0.3066029743589743        0        
C4        C        0.84375        0.148148        0.3066029743589743        0        
C1        C        0.8125        0.24074099999999998        0.3066029743589743        0        
C2        C        0.84375        0.296297        0.3066029743589743        0        
C3        C        0.8125        0.314815        0.3066029743589743        0        
C4        C        0.84375        0.259259        0.3066029743589743        0        
C1        C        0.8125        0.351852        0.3066029743589743        0        
C2        C        0.84375        0.407408        0.3066029743589743        0        
C3        C        0.8125        0.42592500000000005        0.3066029743589743        0        
C4        C        0.84375        0.37037        0.3066029743589743        0        
C1        C        0.8125        0.46296300000000007        0.3066029743589743        0        
C2        C        0.84375        0.518519        0.3066029743589743        0        
C3        C        0.8125        0.537037        0.3066029743589743        0        
C4        C        0.84375        0.481481        0.3066029743589743        0        
C1        C        0.8125        0.574075        0.3066029743589743        0        
C2        C        0.84375        0.62963        0.3066029743589743        0        
C3        C        0.8125        0.648148        0.3066029743589743        0        
C4        C        0.84375        0.592592        0.3066029743589743        0        
C1        C        0.875        0.018519        0.3066029743589743        0        
C2        C        0.9062500000000001        0.074075        0.3066029743589743        0        
C3        C        0.875        0.092592        0.3066029743589743        0        
C4        C        0.9062500000000001        0.037037        0.3066029743589743        0        
C1        C        0.875        0.12963        0.3066029743589743        0        
C2        C        0.9062500000000001        0.185185        0.3066029743589743        0        
C3        C        0.875        0.203703        0.3066029743589743        0        
C4        C        0.9062500000000001        0.148148        0.3066029743589743        0        
C1        C        0.875        0.24074099999999998        0.3066029743589743        0        
C2        C        0.9062500000000001        0.296297        0.3066029743589743        0        
C3        C        0.875        0.314815        0.3066029743589743        0        
C4        C        0.9062500000000001        0.259259        0.3066029743589743        0        
C1        C        0.875        0.351852        0.3066029743589743        0        
C2        C        0.9062500000000001        0.407408        0.3066029743589743        0        
C3        C        0.875        0.42592500000000005        0.3066029743589743        0        
C4        C        0.9062500000000001        0.37037        0.3066029743589743        0        
C1        C        0.875        0.46296300000000007        0.3066029743589743        0        
C2        C        0.9062500000000001        0.518519        0.3066029743589743        0        
C3        C        0.875        0.537037        0.3066029743589743        0        
C4        C        0.9062500000000001        0.481481        0.3066029743589743        0        
C1        C        0.875        0.574075        0.3066029743589743        0        
C2        C        0.9062500000000001        0.62963        0.3066029743589743        0        
C3        C        0.875        0.648148        0.3066029743589743        0        
C4        C        0.9062500000000001        0.592592        0.3066029743589743        0        
C1        C        0.9375        0.018519        0.3066029743589743        0        
C2        C        0.9687500000000001        0.074075        0.3066029743589743        0        
C3        C        0.9375        0.092592        0.3066029743589743        0        
C4        C        0.9687500000000001        0.037037        0.3066029743589743        0        
C1        C        0.9375        0.12963        0.3066029743589743        0        
C2        C        0.9687500000000001        0.185185        0.3066029743589743        0        
C3        C        0.9375        0.203703        0.3066029743589743        0        
C4        C        0.9687500000000001        0.148148        0.3066029743589743        0        
C1        C        0.9375        0.24074099999999998        0.3066029743589743        0        
C2        C        0.9687500000000001        0.296297        0.3066029743589743        0        
C3        C        0.9375        0.314815        0.3066029743589743        0        
C4        C        0.9687500000000001        0.259259        0.3066029743589743        0        
C1        C        0.9375        0.351852        0.3066029743589743        0        
C2        C        0.9687500000000001        0.407408        0.3066029743589743        0        
C3        C        0.9375        0.42592500000000005        0.3066029743589743        0        
C4        C        0.9687500000000001        0.37037        0.3066029743589743        0        
C1        C        0.9375        0.46296300000000007        0.3066029743589743        0        
C2        C        0.9687500000000001        0.518519        0.3066029743589743        0        
C3        C        0.9375        0.537037        0.3066029743589743        0        
C4        C        0.9687500000000001        0.481481        0.3066029743589743        0        
C1        C        0.9375        0.574075        0.3066029743589743        0        
C2        C        0.9687500000000001        0.62963        0.3066029743589743        0        
C3        C        0.9375        0.648148        0.3066029743589743        0        
C4        C        0.9687500000000001        0.592592        0.3066029743589743        0        
C1        C        0.0        0.685186        0.3066029743589743        0        
C1        C        0.0625        0.685186        0.3066029743589743        0        
C1        C        0.125        0.685186        0.3066029743589743        0        
C1        C        0.1875        0.685186        0.3066029743589743        0        
C1        C        0.25        0.685186        0.3066029743589743        0        
C1        C        0.3125        0.685186        0.3066029743589743        0        
C1        C        0.375        0.685186        0.3066029743589743        0        
C1        C        0.4375        0.685186        0.3066029743589743        0        
C1        C        0.5        0.685186        0.3066029743589743        0        
C1        C        0.5625        0.685186        0.3066029743589743        0        
C1        C        0.625        0.685186        0.3066029743589743        0        
C1        C        0.6875        0.685186        0.3066029743589743        0        
C1        C        0.75        0.685186        0.3066029743589743        0        
C1        C        0.8125        0.685186        0.3066029743589743        0        
C1        C        0.875        0.685186        0.3066029743589743        0        
C1        C        0.9375        0.685186        0.3066029743589743        0        
C2        C        0.03125        0.740741        0.3066029743589743        0        
C2        C        0.09375        0.740741        0.3066029743589743        0        
C2        C        0.15625        0.740741        0.3066029743589743        0        
C2        C        0.21875        0.740741        0.3066029743589743        0        
C2        C        0.28125        0.740741        0.3066029743589743        0        
C2        C        0.34375        0.740741        0.3066029743589743        0        
C2        C        0.40625        0.740741        0.3066029743589743        0        
C2        C        0.46875        0.740741        0.3066029743589743        0        
C2        C        0.53125        0.740741        0.3066029743589743        0        
C2        C        0.59375        0.740741        0.3066029743589743        0        
C2        C        0.65625        0.740741        0.3066029743589743        0        
C2        C        0.71875        0.740741        0.3066029743589743        0        
C2        C        0.78125        0.740741        0.3066029743589743        0        
C2        C        0.84375        0.740741        0.3066029743589743        0        
C2        C        0.9062500000000001        0.740741        0.3066029743589743        0        
C2        C        0.9687500000000001        0.740741        0.3066029743589743        0        
C3        C        0.0        0.759259        0.3066029743589743        0        
C3        C        0.0625        0.759259        0.3066029743589743        0        
C3        C        0.125        0.759259        0.3066029743589743        0        
C3        C        0.1875        0.759259        0.3066029743589743        0        
C3        C        0.25        0.759259        0.3066029743589743        0        
C3        C        0.3125        0.759259        0.3066029743589743        0        
C3        C        0.375        0.759259        0.3066029743589743        0        
C3        C        0.4375        0.759259        0.3066029743589743        0        
C3        C        0.5        0.759259        0.3066029743589743        0        
C3        C        0.5625        0.759259        0.3066029743589743        0        
C3        C        0.625        0.759259        0.3066029743589743        0        
C3        C        0.6875        0.759259        0.3066029743589743        0        
C3        C        0.75        0.759259        0.3066029743589743        0        
C3        C        0.8125        0.759259        0.3066029743589743        0        
C3        C        0.875        0.759259        0.3066029743589743        0        
C3        C        0.9375        0.759259        0.3066029743589743        0        
C4        C        0.03125        0.703703        0.3066029743589743        0        
C4        C        0.09375        0.703703        0.3066029743589743        0        
C4        C        0.15625        0.703703        0.3066029743589743        0        
C4        C        0.21875        0.703703        0.3066029743589743        0        
C4        C        0.28125        0.703703        0.3066029743589743        0        
C4        C        0.34375        0.703703        0.3066029743589743        0        
C4        C        0.40625        0.703703        0.3066029743589743        0        
C4        C        0.46875        0.703703        0.3066029743589743        0        
C4        C        0.53125        0.703703        0.3066029743589743        0        
C4        C        0.59375        0.703703        0.3066029743589743        0        
C4        C        0.65625        0.703703        0.3066029743589743        0        
C4        C        0.71875        0.703703        0.3066029743589743        0        
C4        C        0.78125        0.703703        0.3066029743589743        0        
C4        C        0.84375        0.703703        0.3066029743589743        0        
C4        C        0.9062500000000001        0.703703        0.3066029743589743        0        
C4        C        0.9687500000000001        0.703703        0.3066029743589743        0        
C1        C        0.0        0.796297        0.3066029743589743        0        
C1        C        0.0625        0.796297        0.3066029743589743        0        
C1        C        0.125        0.796297        0.3066029743589743        0        
C1        C        0.1875        0.796297        0.3066029743589743        0        
C1        C        0.25        0.796297        0.3066029743589743        0        
C1        C        0.3125        0.796297        0.3066029743589743        0        
C1        C        0.375        0.796297        0.3066029743589743        0        
C1        C        0.4375        0.796297        0.3066029743589743        0        
C1        C        0.5        0.796297        0.3066029743589743        0        
C1        C        0.5625        0.796297        0.3066029743589743        0        
C1        C        0.625        0.796297        0.3066029743589743        0        
C1        C        0.6875        0.796297        0.3066029743589743        0        
C1        C        0.75        0.796297        0.3066029743589743        0        
C1        C        0.8125        0.796297        0.3066029743589743        0        
C1        C        0.875        0.796297        0.3066029743589743        0        
C1        C        0.9375        0.796297        0.3066029743589743        0        
C2        C        0.03125        0.851852        0.3066029743589743        0        
C2        C        0.09375        0.851852        0.3066029743589743        0        
C2        C        0.15625        0.851852        0.3066029743589743        0        
C2        C        0.21875        0.851852        0.3066029743589743        0        
C2        C        0.28125        0.851852        0.3066029743589743        0        
C2        C        0.34375        0.851852        0.3066029743589743        0        
C2        C        0.40625        0.851852        0.3066029743589743        0        
C2        C        0.46875        0.851852        0.3066029743589743        0        
C2        C        0.53125        0.851852        0.3066029743589743        0        
C2        C        0.59375        0.851852        0.3066029743589743        0        
C2        C        0.65625        0.851852        0.3066029743589743        0        
C2        C        0.71875        0.851852        0.3066029743589743        0        
C2        C        0.78125        0.851852        0.3066029743589743        0        
C2        C        0.84375        0.851852        0.3066029743589743        0        
C2        C        0.9062500000000001        0.851852        0.3066029743589743        0        
C2        C        0.9687500000000001        0.851852        0.3066029743589743        0        
C3        C        0.0        0.87037        0.3066029743589743        0        
C3        C        0.0625        0.87037        0.3066029743589743        0        
C3        C        0.125        0.87037        0.3066029743589743        0        
C3        C        0.1875        0.87037        0.3066029743589743        0        
C3        C        0.25        0.87037        0.3066029743589743        0        
C3        C        0.3125        0.87037        0.3066029743589743        0        
C3        C        0.375        0.87037        0.3066029743589743        0        
C3        C        0.4375        0.87037        0.3066029743589743        0        
C3        C        0.5        0.87037        0.3066029743589743        0        
C3        C        0.5625        0.87037        0.3066029743589743        0        
C3        C        0.625        0.87037        0.3066029743589743        0        
C3        C        0.6875        0.87037        0.3066029743589743        0        
C3        C        0.75        0.87037        0.3066029743589743        0        
C3        C        0.8125        0.87037        0.3066029743589743        0        
C3        C        0.875        0.87037        0.3066029743589743        0        
C3        C        0.9375        0.87037        0.3066029743589743        0        
C4        C        0.03125        0.814814        0.3066029743589743        0        
C4        C        0.09375        0.814814        0.3066029743589743        0        
C4        C        0.15625        0.814814        0.3066029743589743        0        
C4        C        0.21875        0.814814        0.3066029743589743        0        
C4        C        0.28125        0.814814        0.3066029743589743        0        
C4        C        0.34375        0.814814        0.3066029743589743        0        
C4        C        0.40625        0.814814        0.3066029743589743        0        
C4        C        0.46875        0.814814        0.3066029743589743        0        
C4        C        0.53125        0.814814        0.3066029743589743        0        
C4        C        0.59375        0.814814        0.3066029743589743        0        
C4        C        0.65625        0.814814        0.3066029743589743        0        
C4        C        0.71875        0.814814        0.3066029743589743        0        
C4        C        0.78125        0.814814        0.3066029743589743        0        
C4        C        0.84375        0.814814        0.3066029743589743        0        
C4        C        0.9062500000000001        0.814814        0.3066029743589743        0        
C4        C        0.9687500000000001        0.814814        0.3066029743589743        0        
C1        C        0.0        0.907408        0.3066029743589743        0        
C1        C        0.0625        0.907408        0.3066029743589743        0        
C1        C        0.125        0.907408        0.3066029743589743        0        
C1        C        0.1875        0.907408        0.3066029743589743        0        
C1        C        0.25        0.907408        0.3066029743589743        0        
C1        C        0.3125        0.907408        0.3066029743589743        0        
C1        C        0.375        0.907408        0.3066029743589743        0        
C1        C        0.4375        0.907408        0.3066029743589743        0        
C1        C        0.5        0.907408        0.3066029743589743        0        
C1        C        0.5625        0.907408        0.3066029743589743        0        
C1        C        0.625        0.907408        0.3066029743589743        0        
C1        C        0.6875        0.907408        0.3066029743589743        0        
C1        C        0.75        0.907408        0.3066029743589743        0        
C1        C        0.8125        0.907408        0.3066029743589743        0        
C1        C        0.875        0.907408        0.3066029743589743        0        
C1        C        0.9375        0.907408        0.3066029743589743        0        
C2        C        0.03125        0.962963        0.3066029743589743        0        
C2        C        0.09375        0.962963        0.3066029743589743        0        
C2        C        0.15625        0.962963        0.3066029743589743        0        
C2        C        0.21875        0.962963        0.3066029743589743        0        
C2        C        0.28125        0.962963        0.3066029743589743        0        
C2        C        0.34375        0.962963        0.3066029743589743        0        
C2        C        0.40625        0.962963        0.3066029743589743        0        
C2        C        0.46875        0.962963        0.3066029743589743        0        
C2        C        0.53125        0.962963        0.3066029743589743        0        
C2        C        0.59375        0.962963        0.3066029743589743        0        
C2        C        0.65625        0.962963        0.3066029743589743        0        
C2        C        0.71875        0.962963        0.3066029743589743        0        
C2        C        0.78125        0.962963        0.3066029743589743        0        
C2        C        0.84375        0.962963        0.3066029743589743        0        
C2        C        0.9062500000000001        0.962963        0.3066029743589743        0        
C2        C        0.9687500000000001        0.962963        0.3066029743589743        0        
C3        C        0.0        0.9814809999999999        0.3066029743589743        0        
C3        C        0.0625        0.9814809999999999        0.3066029743589743        0        
C3        C        0.125        0.9814809999999999        0.3066029743589743        0        
C3        C        0.1875        0.9814809999999999        0.3066029743589743        0        
C3        C        0.25        0.9814809999999999        0.3066029743589743        0        
C3        C        0.3125        0.9814809999999999        0.3066029743589743        0        
C3        C        0.375        0.9814809999999999        0.3066029743589743        0        
C3        C        0.4375        0.9814809999999999        0.3066029743589743        0        
C3        C        0.5        0.9814809999999999        0.3066029743589743        0        
C3        C        0.5625        0.9814809999999999        0.3066029743589743        0        
C3        C        0.625        0.9814809999999999        0.3066029743589743        0        
C3        C        0.6875        0.9814809999999999        0.3066029743589743        0        
C3        C        0.75        0.9814809999999999        0.3066029743589743        0        
C3        C        0.8125        0.9814809999999999        0.3066029743589743        0        
C3        C        0.875        0.9814809999999999        0.3066029743589743        0        
C3        C        0.9375        0.9814809999999999        0.3066029743589743        0        
C4        C        0.03125        0.925925        0.3066029743589743        0        
C4        C        0.09375        0.925925        0.3066029743589743        0        
C4        C        0.15625        0.925925        0.3066029743589743        0        
C4        C        0.21875        0.925925        0.3066029743589743        0        
C4        C        0.28125        0.925925        0.3066029743589743        0        
C4        C        0.34375        0.925925        0.3066029743589743        0        
C4        C        0.40625        0.925925        0.3066029743589743        0        
C4        C        0.46875        0.925925        0.3066029743589743        0        
C4        C        0.53125        0.925925        0.3066029743589743        0        
C4        C        0.59375        0.925925        0.3066029743589743        0        
C4        C        0.65625        0.925925        0.3066029743589743        0        
C4        C        0.71875        0.925925        0.3066029743589743        0        
C4        C        0.78125        0.925925        0.3066029743589743        0        
C4        C        0.84375        0.925925        0.3066029743589743        0        
C4        C        0.9062500000000001        0.925925        0.3066029743589743        0        
C4        C        0.9687500000000001        0.925925        0.3066029743589743        0        
C_FG        C        0.0        0.018519        0.5213459743589743        0.5        
C2        C        0.03125        0.074075        0.5213459743589743        0        
C3        C        0.0        0.092592        0.5213459743589743        0        
C4        C        0.03125        0.037037        0.5213459743589743        0        
C_FG        C        0.0        0.12963        0.5213459743589743        0.5        
C2        C        0.03125        0.185185        0.5213459743589743        0        
C3        C        0.0        0.203703        0.5213459743589743        0        
C4        C        0.03125        0.148148        0.5213459743589743        0        
C_FG        C        0.0        0.24074099999999998        0.5213459743589743        0.5        
C2        C        0.03125        0.296297        0.5213459743589743        0        
C3        C        0.0        0.314815        0.5213459743589743        0        
C4        C        0.03125        0.259259        0.5213459743589743        0        
C_FG        C        0.0        0.351852        0.5213459743589743        0.5        
C2        C        0.03125        0.407408        0.5213459743589743        0        
C3        C        0.0        0.42592500000000005        0.5213459743589743        0        
C4        C        0.03125        0.37037        0.5213459743589743        0        
C_FG        C        0.0        0.46296300000000007        0.5213459743589743        0.5        
C2        C        0.03125        0.518519        0.5213459743589743        0        
C3        C        0.0        0.537037        0.5213459743589743        0        
C4        C        0.03125        0.481481        0.5213459743589743        0        
C_FG        C        0.0        0.574075        0.5213459743589743        0.5        
C2        C        0.03125        0.62963        0.5213459743589743        0        
C3        C        0.0        0.648148        0.5213459743589743        0        
C4        C        0.03125        0.592592        0.5213459743589743        0        
C1        C        0.0625        0.018519        0.5213459743589743        0        
C2        C        0.09375        0.074075        0.5213459743589743        0        
C3        C        0.0625        0.092592        0.5213459743589743        0        
C4        C        0.09375        0.037037        0.5213459743589743        0        
C1        C        0.0625        0.12963        0.5213459743589743        0        
C2        C        0.09375        0.185185        0.5213459743589743        0        
C3        C        0.0625        0.203703        0.5213459743589743        0        
C4        C        0.09375        0.148148        0.5213459743589743        0        
C1        C        0.0625        0.24074099999999998        0.5213459743589743        0        
C2        C        0.09375        0.296297        0.5213459743589743        0        
C3        C        0.0625        0.314815        0.5213459743589743        0        
C4        C        0.09375        0.259259        0.5213459743589743        0        
C1        C        0.0625        0.351852        0.5213459743589743        0        
C2        C        0.09375        0.407408        0.5213459743589743        0        
C3        C        0.0625        0.42592500000000005        0.5213459743589743        0        
C4        C        0.09375        0.37037        0.5213459743589743        0        
C1        C        0.0625        0.46296300000000007        0.5213459743589743        0        
C2        C        0.09375        0.518519        0.5213459743589743        0        
C3        C        0.0625        0.537037        0.5213459743589743        0        
C4        C        0.09375        0.481481        0.5213459743589743        0        
C1        C        0.0625        0.574075        0.5213459743589743        0        
C2        C        0.09375        0.62963        0.5213459743589743        0        
C3        C        0.0625        0.648148        0.5213459743589743        0        
C4        C        0.09375        0.592592        0.5213459743589743        0        
C1        C        0.125        0.018519        0.5213459743589743        0        
C2        C        0.15625        0.074075        0.5213459743589743        0        
C3        C        0.125        0.092592        0.5213459743589743        0        
C4        C        0.15625        0.037037        0.5213459743589743        0        
C1        C        0.125        0.12963        0.5213459743589743        0        
C2        C        0.15625        0.185185        0.5213459743589743        0        
C3        C        0.125        0.203703        0.5213459743589743        0        
C4        C        0.15625        0.148148        0.5213459743589743        0        
C1        C        0.125        0.24074099999999998        0.5213459743589743        0        
C2        C        0.15625        0.296297        0.5213459743589743        0        
C3        C        0.125        0.314815        0.5213459743589743        0        
C4        C        0.15625        0.259259        0.5213459743589743        0        
C1        C        0.125        0.351852        0.5213459743589743        0        
C2        C        0.15625        0.407408        0.5213459743589743        0        
C3        C        0.125        0.42592500000000005        0.5213459743589743        0        
C4        C        0.15625        0.37037        0.5213459743589743        0        
C1        C        0.125        0.46296300000000007        0.5213459743589743        0        
C2        C        0.15625        0.518519        0.5213459743589743        0        
C3        C        0.125        0.537037        0.5213459743589743        0        
C4        C        0.15625        0.481481        0.5213459743589743        0        
C1        C        0.125        0.574075        0.5213459743589743        0        
C2        C        0.15625        0.62963        0.5213459743589743        0        
C3        C        0.125        0.648148        0.5213459743589743        0        
C4        C        0.15625        0.592592        0.5213459743589743        0        
C1        C        0.1875        0.018519        0.5213459743589743        0        
C2        C        0.21875        0.074075        0.5213459743589743        0        
C3        C        0.1875        0.092592        0.5213459743589743        0        
C4        C        0.21875        0.037037        0.5213459743589743        0        
C1        C        0.1875        0.12963        0.5213459743589743        0        
C2        C        0.21875        0.185185        0.5213459743589743        0        
C3        C        0.1875        0.203703        0.5213459743589743        0        
C4        C        0.21875        0.148148        0.5213459743589743        0        
C1        C        0.1875        0.24074099999999998        0.5213459743589743        0        
C2        C        0.21875        0.296297        0.5213459743589743        0        
C3        C        0.1875        0.314815        0.5213459743589743        0        
C4        C        0.21875        0.259259        0.5213459743589743        0        
C1        C        0.1875        0.351852        0.5213459743589743        0        
C2        C        0.21875        0.407408        0.5213459743589743        0        
C3        C        0.1875        0.42592500000000005        0.5213459743589743        0        
C4        C        0.21875        0.37037        0.5213459743589743        0        
C1        C        0.1875        0.46296300000000007        0.5213459743589743        0        
C2        C        0.21875        0.518519        0.5213459743589743        0        
C3        C        0.1875        0.537037        0.5213459743589743        0        
C4        C        0.21875        0.481481        0.5213459743589743        0        
C1        C        0.1875        0.574075        0.5213459743589743        0        
C2        C        0.21875        0.62963        0.5213459743589743        0        
C3        C        0.1875        0.648148        0.5213459743589743        0        
C4        C        0.21875        0.592592        0.5213459743589743        0        
C_FG        C        0.25        0.018519        0.5213459743589743        0.5        
C2        C        0.28125        0.074075        0.5213459743589743        0        
C3        C        0.25        0.092592        0.5213459743589743        0        
C4        C        0.28125        0.037037        0.5213459743589743        0        
C_FG        C        0.25        0.12963        0.5213459743589743        0.5        
C2        C        0.28125        0.185185        0.5213459743589743        0        
C3        C        0.25        0.203703        0.5213459743589743        0        
C4        C        0.28125        0.148148        0.5213459743589743        0        
C_FG        C        0.25        0.24074099999999998        0.5213459743589743        0.5        
C2        C        0.28125        0.296297        0.5213459743589743        0        
C3        C        0.25        0.314815        0.5213459743589743        0        
C4        C        0.28125        0.259259        0.5213459743589743        0        
C_FG        C        0.25        0.351852        0.5213459743589743        0.5        
C2        C        0.28125        0.407408        0.5213459743589743        0        
C3        C        0.25        0.42592500000000005        0.5213459743589743        0        
C4        C        0.28125        0.37037        0.5213459743589743        0        
C_FG        C        0.25        0.46296300000000007        0.5213459743589743        0.5        
C2        C        0.28125        0.518519        0.5213459743589743        0        
C3        C        0.25        0.537037        0.5213459743589743        0        
C4        C        0.28125        0.481481        0.5213459743589743        0        
C_FG        C        0.25        0.574075        0.5213459743589743        0.5        
C2        C        0.28125        0.62963        0.5213459743589743        0        
C3        C        0.25        0.648148        0.5213459743589743        0        
C4        C        0.28125        0.592592        0.5213459743589743        0        
C1        C        0.3125        0.018519        0.5213459743589743        0        
C2        C        0.34375        0.074075        0.5213459743589743        0        
C3        C        0.3125        0.092592        0.5213459743589743        0        
C4        C        0.34375        0.037037        0.5213459743589743        0        
C1        C        0.3125        0.12963        0.5213459743589743        0        
C2        C        0.34375        0.185185        0.5213459743589743        0        
C3        C        0.3125        0.203703        0.5213459743589743        0        
C4        C        0.34375        0.148148        0.5213459743589743        0        
C1        C        0.3125        0.24074099999999998        0.5213459743589743        0        
C2        C        0.34375        0.296297        0.5213459743589743        0        
C3        C        0.3125        0.314815        0.5213459743589743        0        
C4        C        0.34375        0.259259        0.5213459743589743        0        
C1        C        0.3125        0.351852        0.5213459743589743        0        
C2        C        0.34375        0.407408        0.5213459743589743        0        
C3        C        0.3125        0.42592500000000005        0.5213459743589743        0        
C4        C        0.34375        0.37037        0.5213459743589743        0        
C1        C        0.3125        0.46296300000000007        0.5213459743589743        0        
C2        C        0.34375        0.518519        0.5213459743589743        0        
C3        C        0.3125        0.537037        0.5213459743589743        0        
C4        C        0.34375        0.481481        0.5213459743589743        0        
C1        C        0.3125        0.574075        0.5213459743589743        0        
C2        C        0.34375        0.62963        0.5213459743589743        0        
C3        C        0.3125        0.648148        0.5213459743589743        0        
C4        C        0.34375        0.592592        0.5213459743589743        0        
C1        C        0.375        0.018519        0.5213459743589743        0        
C2        C        0.40625        0.074075        0.5213459743589743        0        
C3        C        0.375        0.092592        0.5213459743589743        0        
C4        C        0.40625        0.037037        0.5213459743589743        0        
C1        C        0.375        0.12963        0.5213459743589743        0        
C2        C        0.40625        0.185185        0.5213459743589743        0        
C3        C        0.375        0.203703        0.5213459743589743        0        
C4        C        0.40625        0.148148        0.5213459743589743        0        
C1        C        0.375        0.24074099999999998        0.5213459743589743        0        
C2        C        0.40625        0.296297        0.5213459743589743        0        
C3        C        0.375        0.314815        0.5213459743589743        0        
C4        C        0.40625        0.259259        0.5213459743589743        0        
C1        C        0.375        0.351852        0.5213459743589743        0        
C2        C        0.40625        0.407408        0.5213459743589743        0        
C3        C        0.375        0.42592500000000005        0.5213459743589743        0        
C4        C        0.40625        0.37037        0.5213459743589743        0        
C1        C        0.375        0.46296300000000007        0.5213459743589743        0        
C2        C        0.40625        0.518519        0.5213459743589743        0        
C3        C        0.375        0.537037        0.5213459743589743        0        
C4        C        0.40625        0.481481        0.5213459743589743        0        
C1        C        0.375        0.574075        0.5213459743589743        0        
C2        C        0.40625        0.62963        0.5213459743589743        0        
C3        C        0.375        0.648148        0.5213459743589743        0        
C4        C        0.40625        0.592592        0.5213459743589743        0        
C1        C        0.4375        0.018519        0.5213459743589743        0        
C2        C        0.46875        0.074075        0.5213459743589743        0        
C3        C        0.4375        0.092592        0.5213459743589743        0        
C4        C        0.46875        0.037037        0.5213459743589743        0        
C1        C        0.4375        0.12963        0.5213459743589743        0        
C2        C        0.46875        0.185185        0.5213459743589743        0        
C3        C        0.4375        0.203703        0.5213459743589743        0        
C4        C        0.46875        0.148148        0.5213459743589743        0        
C1        C        0.4375        0.24074099999999998        0.5213459743589743        0        
C2        C        0.46875        0.296297        0.5213459743589743        0        
C3        C        0.4375        0.314815        0.5213459743589743        0        
C4        C        0.46875        0.259259        0.5213459743589743        0        
C1        C        0.4375        0.351852        0.5213459743589743        0        
C2        C        0.46875        0.407408        0.5213459743589743        0        
C3        C        0.4375        0.42592500000000005        0.5213459743589743        0        
C4        C        0.46875        0.37037        0.5213459743589743        0        
C1        C        0.4375        0.46296300000000007        0.5213459743589743        0        
C2        C        0.46875        0.518519        0.5213459743589743        0        
C3        C        0.4375        0.537037        0.5213459743589743        0        
C4        C        0.46875        0.481481        0.5213459743589743        0        
C1        C        0.4375        0.574075        0.5213459743589743        0        
C2        C        0.46875        0.62963        0.5213459743589743        0        
C3        C        0.4375        0.648148        0.5213459743589743        0        
C4        C        0.46875        0.592592        0.5213459743589743        0        
C1        C        0.5        0.018519        0.5213459743589743        0        
C2        C        0.53125        0.074075        0.5213459743589743        0        
C3        C        0.5        0.092592        0.5213459743589743        0        
C4        C        0.53125        0.037037        0.5213459743589743        0        
C1        C        0.5        0.12963        0.5213459743589743        0        
C2        C        0.53125        0.185185        0.5213459743589743        0        
C3        C        0.5        0.203703        0.5213459743589743        0        
C4        C        0.53125        0.148148        0.5213459743589743        0        
C1        C        0.5        0.24074099999999998        0.5213459743589743        0        
C2        C        0.53125        0.296297        0.5213459743589743        0        
C3        C        0.5        0.314815        0.5213459743589743        0        
C4        C        0.53125        0.259259        0.5213459743589743        0        
C1        C        0.5        0.351852        0.5213459743589743        0        
C2        C        0.53125        0.407408        0.5213459743589743        0        
C3        C        0.5        0.42592500000000005        0.5213459743589743        0        
C4        C        0.53125        0.37037        0.5213459743589743        0        
C1        C        0.5        0.46296300000000007        0.5213459743589743        0        
C2        C        0.53125        0.518519        0.5213459743589743        0        
C3        C        0.5        0.537037        0.5213459743589743        0        
C4        C        0.53125        0.481481        0.5213459743589743        0        
C1        C        0.5        0.574075        0.5213459743589743        0        
C2        C        0.53125        0.62963        0.5213459743589743        0        
C3        C        0.5        0.648148        0.5213459743589743        0        
C4        C        0.53125        0.592592        0.5213459743589743        0        
C1        C        0.5625        0.018519        0.5213459743589743        0        
C2        C        0.59375        0.074075        0.5213459743589743        0        
C3        C        0.5625        0.092592        0.5213459743589743        0        
C4        C        0.59375        0.037037        0.5213459743589743        0        
C1        C        0.5625        0.12963        0.5213459743589743        0        
C2        C        0.59375        0.185185        0.5213459743589743        0        
C3        C        0.5625        0.203703        0.5213459743589743        0        
C4        C        0.59375        0.148148        0.5213459743589743        0        
C1        C        0.5625        0.24074099999999998        0.5213459743589743        0        
C2        C        0.59375        0.296297        0.5213459743589743        0        
C3        C        0.5625        0.314815        0.5213459743589743        0        
C4        C        0.59375        0.259259        0.5213459743589743        0        
C1        C        0.5625        0.351852        0.5213459743589743        0        
C2        C        0.59375        0.407408        0.5213459743589743        0        
C3        C        0.5625        0.42592500000000005        0.5213459743589743        0        
C4        C        0.59375        0.37037        0.5213459743589743        0        
C1        C        0.5625        0.46296300000000007        0.5213459743589743        0        
C2        C        0.59375        0.518519        0.5213459743589743        0        
C3        C        0.5625        0.537037        0.5213459743589743        0        
C4        C        0.59375        0.481481        0.5213459743589743        0        
C1        C        0.5625        0.574075        0.5213459743589743        0        
C2        C        0.59375        0.62963        0.5213459743589743        0        
C3        C        0.5625        0.648148        0.5213459743589743        0        
C4        C        0.59375        0.592592        0.5213459743589743        0        
C1        C        0.625        0.018519        0.5213459743589743        0        
C2        C        0.65625        0.074075        0.5213459743589743        0        
C3        C        0.625        0.092592        0.5213459743589743        0        
C4        C        0.65625        0.037037        0.5213459743589743        0        
C1        C        0.625        0.12963        0.5213459743589743        0        
C2        C        0.65625        0.185185        0.5213459743589743        0        
C3        C        0.625        0.203703        0.5213459743589743        0        
C4        C        0.65625        0.148148        0.5213459743589743        0        
C1        C        0.625        0.24074099999999998        0.5213459743589743        0        
C2        C        0.65625        0.296297        0.5213459743589743        0        
C3        C        0.625        0.314815        0.5213459743589743        0        
C4        C        0.65625        0.259259        0.5213459743589743        0        
C1        C        0.625        0.351852        0.5213459743589743        0        
C2        C        0.65625        0.407408        0.5213459743589743        0        
C3        C        0.625        0.42592500000000005        0.5213459743589743        0        
C4        C        0.65625        0.37037        0.5213459743589743        0        
C1        C        0.625        0.46296300000000007        0.5213459743589743        0        
C2        C        0.65625        0.518519        0.5213459743589743        0        
C3        C        0.625        0.537037        0.5213459743589743        0        
C4        C        0.65625        0.481481        0.5213459743589743        0        
C1        C        0.625        0.574075        0.5213459743589743        0        
C2        C        0.65625        0.62963        0.5213459743589743        0        
C3        C        0.625        0.648148        0.5213459743589743        0        
C4        C        0.65625        0.592592        0.5213459743589743        0        
C1        C        0.6875        0.018519        0.5213459743589743        0        
C2        C        0.71875        0.074075        0.5213459743589743        0        
C3        C        0.6875        0.092592        0.5213459743589743        0        
C4        C        0.71875        0.037037        0.5213459743589743        0        
C1        C        0.6875        0.12963        0.5213459743589743        0        
C2        C        0.71875        0.185185        0.5213459743589743        0        
C3        C        0.6875        0.203703        0.5213459743589743        0        
C4        C        0.71875        0.148148        0.5213459743589743        0        
C1        C        0.6875        0.24074099999999998        0.5213459743589743        0        
C2        C        0.71875        0.296297        0.5213459743589743        0        
C3        C        0.6875        0.314815        0.5213459743589743        0        
C4        C        0.71875        0.259259        0.5213459743589743        0        
C1        C        0.6875        0.351852        0.5213459743589743        0        
C2        C        0.71875        0.407408        0.5213459743589743        0        
C3        C        0.6875        0.42592500000000005        0.5213459743589743        0        
C4        C        0.71875        0.37037        0.5213459743589743        0        
C1        C        0.6875        0.46296300000000007        0.5213459743589743        0        
C2        C        0.71875        0.518519        0.5213459743589743        0        
C3        C        0.6875        0.537037        0.5213459743589743        0        
C4        C        0.71875        0.481481        0.5213459743589743        0        
C1        C        0.6875        0.574075        0.5213459743589743        0        
C2        C        0.71875        0.62963        0.5213459743589743        0        
C3        C        0.6875        0.648148        0.5213459743589743        0        
C4        C        0.71875        0.592592        0.5213459743589743        0        
C_FG        C        0.75        0.018519        0.5213459743589743        0.5        
C2        C        0.78125        0.074075        0.5213459743589743        0        
C3        C        0.75        0.092592        0.5213459743589743        0        
C4        C        0.78125        0.037037        0.5213459743589743        0        
C_FG        C        0.75        0.12963        0.5213459743589743        0.5        
C2        C        0.78125        0.185185        0.5213459743589743        0        
C3        C        0.75        0.203703        0.5213459743589743        0        
C4        C        0.78125        0.148148        0.5213459743589743        0        
C_FG        C        0.75        0.24074099999999998        0.5213459743589743        0.5        
C2        C        0.78125        0.296297        0.5213459743589743        0        
C3        C        0.75        0.314815        0.5213459743589743        0        
C4        C        0.78125        0.259259        0.5213459743589743        0        
C_FG        C        0.75        0.351852        0.5213459743589743        0.5        
C2        C        0.78125        0.407408        0.5213459743589743        0        
C3        C        0.75        0.42592500000000005        0.5213459743589743        0        
C4        C        0.78125        0.37037        0.5213459743589743        0        
C_FG        C        0.75        0.46296300000000007        0.5213459743589743        0.5        
C2        C        0.78125        0.518519        0.5213459743589743        0        
C3        C        0.75        0.537037        0.5213459743589743        0        
C4        C        0.78125        0.481481        0.5213459743589743        0        
C_FG        C        0.75        0.574075        0.5213459743589743        0.5        
C2        C        0.78125        0.62963        0.5213459743589743        0        
C3        C        0.75        0.648148        0.5213459743589743        0        
C4        C        0.78125        0.592592        0.5213459743589743        0        
C1        C        0.8125        0.018519        0.5213459743589743        0        
C2        C        0.84375        0.074075        0.5213459743589743        0        
C3        C        0.8125        0.092592        0.5213459743589743        0        
C4        C        0.84375        0.037037        0.5213459743589743        0        
C1        C        0.8125        0.12963        0.5213459743589743        0        
C2        C        0.84375        0.185185        0.5213459743589743        0        
C3        C        0.8125        0.203703        0.5213459743589743        0        
C4        C        0.84375        0.148148        0.5213459743589743        0        
C1        C        0.8125        0.24074099999999998        0.5213459743589743        0        
C2        C        0.84375        0.296297        0.5213459743589743        0        
C3        C        0.8125        0.314815        0.5213459743589743        0        
C4        C        0.84375        0.259259        0.5213459743589743        0        
C1        C        0.8125        0.351852        0.5213459743589743        0        
C2        C        0.84375        0.407408        0.5213459743589743        0        
C3        C        0.8125        0.42592500000000005        0.5213459743589743        0        
C4        C        0.84375        0.37037        0.5213459743589743        0        
C1        C        0.8125        0.46296300000000007        0.5213459743589743        0        
C2        C        0.84375        0.518519        0.5213459743589743        0        
C3        C        0.8125        0.537037        0.5213459743589743        0        
C4        C        0.84375        0.481481        0.5213459743589743        0        
C1        C        0.8125        0.574075        0.5213459743589743        0        
C2        C        0.84375        0.62963        0.5213459743589743        0        
C3        C        0.8125        0.648148        0.5213459743589743        0        
C4        C        0.84375        0.592592        0.5213459743589743        0        
C1        C        0.875        0.018519        0.5213459743589743        0        
C2        C        0.9062500000000001        0.074075        0.5213459743589743        0        
C3        C        0.875        0.092592        0.5213459743589743        0        
C4        C        0.9062500000000001        0.037037        0.5213459743589743        0        
C1        C        0.875        0.12963        0.5213459743589743        0        
C2        C        0.9062500000000001        0.185185        0.5213459743589743        0        
C3        C        0.875        0.203703        0.5213459743589743        0        
C4        C        0.9062500000000001        0.148148        0.5213459743589743        0        
C1        C        0.875        0.24074099999999998        0.5213459743589743        0        
C2        C        0.9062500000000001        0.296297        0.5213459743589743        0        
C3        C        0.875        0.314815        0.5213459743589743        0        
C4        C        0.9062500000000001        0.259259        0.5213459743589743        0        
C1        C        0.875        0.351852        0.5213459743589743        0        
C2        C        0.9062500000000001        0.407408        0.5213459743589743        0        
C3        C        0.875        0.42592500000000005        0.5213459743589743        0        
C4        C        0.9062500000000001        0.37037        0.5213459743589743        0        
C1        C        0.875        0.46296300000000007        0.5213459743589743        0        
C2        C        0.9062500000000001        0.518519        0.5213459743589743        0        
C3        C        0.875        0.537037        0.5213459743589743        0        
C4        C        0.9062500000000001        0.481481        0.5213459743589743        0        
C1        C        0.875        0.574075        0.5213459743589743        0        
C2        C        0.9062500000000001        0.62963        0.5213459743589743        0        
C3        C        0.875        0.648148        0.5213459743589743        0        
C4        C        0.9062500000000001        0.592592        0.5213459743589743        0        
C1        C        0.9375        0.018519        0.5213459743589743        0        
C2        C        0.9687500000000001        0.074075        0.5213459743589743        0        
C3        C        0.9375        0.092592        0.5213459743589743        0        
C4        C        0.9687500000000001        0.037037        0.5213459743589743        0        
C1        C        0.9375        0.12963        0.5213459743589743        0        
C2        C        0.9687500000000001        0.185185        0.5213459743589743        0        
C3        C        0.9375        0.203703        0.5213459743589743        0        
C4        C        0.9687500000000001        0.148148        0.5213459743589743        0        
C1        C        0.9375        0.24074099999999998        0.5213459743589743        0        
C2        C        0.9687500000000001        0.296297        0.5213459743589743        0        
C3        C        0.9375        0.314815        0.5213459743589743        0        
C4        C        0.9687500000000001        0.259259        0.5213459743589743        0        
C1        C        0.9375        0.351852        0.5213459743589743        0        
C2        C        0.9687500000000001        0.407408        0.5213459743589743        0        
C3        C        0.9375        0.42592500000000005        0.5213459743589743        0        
C4        C        0.9687500000000001        0.37037        0.5213459743589743        0        
C1        C        0.9375        0.46296300000000007        0.5213459743589743        0        
C2        C        0.9687500000000001        0.518519        0.5213459743589743        0        
C3        C        0.9375        0.537037        0.5213459743589743        0        
C4        C        0.9687500000000001        0.481481        0.5213459743589743        0        
C1        C        0.9375        0.574075        0.5213459743589743        0        
C2        C        0.9687500000000001        0.62963        0.5213459743589743        0        
C3        C        0.9375        0.648148        0.5213459743589743        0        
C4        C        0.9687500000000001        0.592592        0.5213459743589743        0        
C_FG        C        0.0        0.685186        0.5213459743589743        0.5        
C1        C        0.0625        0.685186        0.5213459743589743        0        
C1        C        0.125        0.685186        0.5213459743589743        0        
C1        C        0.1875        0.685186        0.5213459743589743        0        
C_FG        C        0.25        0.685186        0.5213459743589743        0.5        
C1        C        0.3125        0.685186        0.5213459743589743        0        
C1        C        0.375        0.685186        0.5213459743589743        0        
C1        C        0.4375        0.685186        0.5213459743589743        0        
C1        C        0.5        0.685186        0.5213459743589743        0        
C1        C        0.5625        0.685186        0.5213459743589743        0        
C1        C        0.625        0.685186        0.5213459743589743        0        
C1        C        0.6875        0.685186        0.5213459743589743        0        
C_FG        C        0.75        0.685186        0.5213459743589743        0.5        
C1        C        0.8125        0.685186        0.5213459743589743        0        
C1        C        0.875        0.685186        0.5213459743589743        0        
C1        C        0.9375        0.685186        0.5213459743589743        0        
C2        C        0.03125        0.740741        0.5213459743589743        0        
C2        C        0.09375        0.740741        0.5213459743589743        0        
C2        C        0.15625        0.740741        0.5213459743589743        0        
C2        C        0.21875        0.740741        0.5213459743589743        0        
C2        C        0.28125        0.740741        0.5213459743589743        0        
C2        C        0.34375        0.740741        0.5213459743589743        0        
C2        C        0.40625        0.740741        0.5213459743589743        0        
C2        C        0.46875        0.740741        0.5213459743589743        0        
C2        C        0.53125        0.740741        0.5213459743589743        0        
C2        C        0.59375        0.740741        0.5213459743589743        0        
C2        C        0.65625        0.740741        0.5213459743589743        0        
C2        C        0.71875        0.740741        0.5213459743589743        0        
C2        C        0.78125        0.740741        0.5213459743589743        0        
C2        C        0.84375        0.740741        0.5213459743589743        0        
C2        C        0.9062500000000001        0.740741        0.5213459743589743        0        
C2        C        0.9687500000000001        0.740741        0.5213459743589743        0        
C3        C        0.0        0.759259        0.5213459743589743        0        
C3        C        0.0625        0.759259        0.5213459743589743        0        
C3        C        0.125        0.759259        0.5213459743589743        0        
C3        C        0.1875        0.759259        0.5213459743589743        0        
C3        C        0.25        0.759259        0.5213459743589743        0        
C3        C        0.3125        0.759259        0.5213459743589743        0        
C3        C        0.375        0.759259        0.5213459743589743        0        
C3        C        0.4375        0.759259        0.5213459743589743        0        
C3        C        0.5        0.759259        0.5213459743589743        0        
C3        C        0.5625        0.759259        0.5213459743589743        0        
C3        C        0.625        0.759259        0.5213459743589743        0        
C3        C        0.6875        0.759259        0.5213459743589743        0        
C3        C        0.75        0.759259        0.5213459743589743        0        
C3        C        0.8125        0.759259        0.5213459743589743        0        
C3        C        0.875        0.759259        0.5213459743589743        0        
C3        C        0.9375        0.759259        0.5213459743589743        0        
C4        C        0.03125        0.703703        0.5213459743589743        0        
C4        C        0.09375        0.703703        0.5213459743589743        0        
C4        C        0.15625        0.703703        0.5213459743589743        0        
C4        C        0.21875        0.703703        0.5213459743589743        0        
C4        C        0.28125        0.703703        0.5213459743589743        0        
C4        C        0.34375        0.703703        0.5213459743589743        0        
C4        C        0.40625        0.703703        0.5213459743589743        0        
C4        C        0.46875        0.703703        0.5213459743589743        0        
C4        C        0.53125        0.703703        0.5213459743589743        0        
C4        C        0.59375        0.703703        0.5213459743589743        0        
C4        C        0.65625        0.703703        0.5213459743589743        0        
C4        C        0.71875        0.703703        0.5213459743589743        0        
C4        C        0.78125        0.703703        0.5213459743589743        0        
C4        C        0.84375        0.703703        0.5213459743589743        0        
C4        C        0.9062500000000001        0.703703        0.5213459743589743        0        
C4        C        0.9687500000000001        0.703703        0.5213459743589743        0        
C_FG        C        0.0        0.796297        0.5213459743589743        0.5        
C1        C        0.0625        0.796297        0.5213459743589743        0        
C1        C        0.125        0.796297        0.5213459743589743        0        
C1        C        0.1875        0.796297        0.5213459743589743        0        
C_FG        C        0.25        0.796297        0.5213459743589743        0.5        
C1        C        0.3125        0.796297        0.5213459743589743        0        
C1        C        0.375        0.796297        0.5213459743589743        0        
C1        C        0.4375        0.796297        0.5213459743589743        0        
C1        C        0.5        0.796297        0.5213459743589743        0        
C1        C        0.5625        0.796297        0.5213459743589743        0        
C1        C        0.625        0.796297        0.5213459743589743        0        
C1        C        0.6875        0.796297        0.5213459743589743        0        
C_FG        C        0.75        0.796297        0.5213459743589743        0.5        
C1        C        0.8125        0.796297        0.5213459743589743        0        
C1        C        0.875        0.796297        0.5213459743589743        0        
C1        C        0.9375        0.796297        0.5213459743589743        0        
C2        C        0.03125        0.851852        0.5213459743589743        0        
C2        C        0.09375        0.851852        0.5213459743589743        0        
C2        C        0.15625        0.851852        0.5213459743589743        0        
C2        C        0.21875        0.851852        0.5213459743589743        0        
C2        C        0.28125        0.851852        0.5213459743589743        0        
C2        C        0.34375        0.851852        0.5213459743589743        0        
C2        C        0.40625        0.851852        0.5213459743589743        0        
C2        C        0.46875        0.851852        0.5213459743589743        0        
C2        C        0.53125        0.851852        0.5213459743589743        0        
C2        C        0.59375        0.851852        0.5213459743589743        0        
C2        C        0.65625        0.851852        0.5213459743589743        0        
C2        C        0.71875        0.851852        0.5213459743589743        0        
C2        C        0.78125        0.851852        0.5213459743589743        0        
C2        C        0.84375        0.851852        0.5213459743589743        0        
C2        C        0.9062500000000001        0.851852        0.5213459743589743        0        
C2        C        0.9687500000000001        0.851852        0.5213459743589743        0        
C3        C        0.0        0.87037        0.5213459743589743        0        
C3        C        0.0625        0.87037        0.5213459743589743        0        
C3        C        0.125        0.87037        0.5213459743589743        0        
C3        C        0.1875        0.87037        0.5213459743589743        0        
C3        C        0.25        0.87037        0.5213459743589743        0        
C3        C        0.3125        0.87037        0.5213459743589743        0        
C3        C        0.375        0.87037        0.5213459743589743        0        
C3        C        0.4375        0.87037        0.5213459743589743        0        
C3        C        0.5        0.87037        0.5213459743589743        0        
C3        C        0.5625        0.87037        0.5213459743589743        0        
C3        C        0.625        0.87037        0.5213459743589743        0        
C3        C        0.6875        0.87037        0.5213459743589743        0        
C3        C        0.75        0.87037        0.5213459743589743        0        
C3        C        0.8125        0.87037        0.5213459743589743        0        
C3        C        0.875        0.87037        0.5213459743589743        0        
C3        C        0.9375        0.87037        0.5213459743589743        0        
C4        C        0.03125        0.814814        0.5213459743589743        0        
C4        C        0.09375        0.814814        0.5213459743589743        0        
C4        C        0.15625        0.814814        0.5213459743589743        0        
C4        C        0.21875        0.814814        0.5213459743589743        0        
C4        C        0.28125        0.814814        0.5213459743589743        0        
C4        C        0.34375        0.814814        0.5213459743589743        0        
C4        C        0.40625        0.814814        0.5213459743589743        0        
C4        C        0.46875        0.814814        0.5213459743589743        0        
C4        C        0.53125        0.814814        0.5213459743589743        0        
C4        C        0.59375        0.814814        0.5213459743589743        0        
C4        C        0.65625        0.814814        0.5213459743589743        0        
C4        C        0.71875        0.814814        0.5213459743589743        0        
C4        C        0.78125        0.814814        0.5213459743589743        0        
C4        C        0.84375        0.814814        0.5213459743589743        0        
C4        C        0.9062500000000001        0.814814        0.5213459743589743        0        
C4        C        0.9687500000000001        0.814814        0.5213459743589743        0        
C_FG        C        0.0        0.907408        0.5213459743589743        0.5        
C1        C        0.0625        0.907408        0.5213459743589743        0        
C1        C        0.125        0.907408        0.5213459743589743        0        
C1        C        0.1875        0.907408        0.5213459743589743        0        
C_FG        C        0.25        0.907408        0.5213459743589743        0.5        
C1        C        0.3125        0.907408        0.5213459743589743        0        
C1        C        0.375        0.907408        0.5213459743589743        0        
C1        C        0.4375        0.907408        0.5213459743589743        0        
C1        C        0.5        0.907408        0.5213459743589743        0        
C1        C        0.5625        0.907408        0.5213459743589743        0        
C1        C        0.625        0.907408        0.5213459743589743        0        
C1        C        0.6875        0.907408        0.5213459743589743        0        
C_FG        C        0.75        0.907408        0.5213459743589743        0.5        
C1        C        0.8125        0.907408        0.5213459743589743        0        
C1        C        0.875        0.907408        0.5213459743589743        0        
C1        C        0.9375        0.907408        0.5213459743589743        0        
C2        C        0.03125        0.962963        0.5213459743589743        0        
C2        C        0.09375        0.962963        0.5213459743589743        0        
C2        C        0.15625        0.962963        0.5213459743589743        0        
C2        C        0.21875        0.962963        0.5213459743589743        0        
C2        C        0.28125        0.962963        0.5213459743589743        0        
C2        C        0.34375        0.962963        0.5213459743589743        0        
C2        C        0.40625        0.962963        0.5213459743589743        0        
C2        C        0.46875        0.962963        0.5213459743589743        0        
C2        C        0.53125        0.962963        0.5213459743589743        0        
C2        C        0.59375        0.962963        0.5213459743589743        0        
C2        C        0.65625        0.962963        0.5213459743589743        0        
C2        C        0.71875        0.962963        0.5213459743589743        0        
C2        C        0.78125        0.962963        0.5213459743589743        0        
C2        C        0.84375        0.962963        0.5213459743589743        0        
C2        C        0.9062500000000001        0.962963        0.5213459743589743        0        
C2        C        0.9687500000000001        0.962963        0.5213459743589743        0        
C3        C        0.0        0.9814809999999999        0.5213459743589743        0        
C3        C        0.0625        0.9814809999999999        0.5213459743589743        0        
C3        C        0.125        0.9814809999999999        0.5213459743589743        0        
C3        C        0.1875        0.9814809999999999        0.5213459743589743        0        
C3        C        0.25        0.9814809999999999        0.5213459743589743        0        
C3        C        0.3125        0.9814809999999999        0.5213459743589743        0        
C3        C        0.375        0.9814809999999999        0.5213459743589743        0        
C3        C        0.4375        0.9814809999999999        0.5213459743589743        0        
C3        C        0.5        0.9814809999999999        0.5213459743589743        0        
C3        C        0.5625        0.9814809999999999        0.5213459743589743        0        
C3        C        0.625        0.9814809999999999        0.5213459743589743        0        
C3        C        0.6875        0.9814809999999999        0.5213459743589743        0        
C3        C        0.75        0.9814809999999999        0.5213459743589743        0        
C3        C        0.8125        0.9814809999999999        0.5213459743589743        0        
C3        C        0.875        0.9814809999999999        0.5213459743589743        0        
C3        C        0.9375        0.9814809999999999        0.5213459743589743        0        
C4        C        0.03125        0.925925        0.5213459743589743        0        
C4        C        0.09375        0.925925        0.5213459743589743        0        
C4        C        0.15625        0.925925        0.5213459743589743        0        
C4        C        0.21875        0.925925        0.5213459743589743        0        
C4        C        0.28125        0.925925        0.5213459743589743        0        
C4        C        0.34375        0.925925        0.5213459743589743        0        
C4        C        0.40625        0.925925        0.5213459743589743        0        
C4        C        0.46875        0.925925        0.5213459743589743        0        
C4        C        0.53125        0.925925        0.5213459743589743        0        
C4        C        0.59375        0.925925        0.5213459743589743        0        
C4        C        0.65625        0.925925        0.5213459743589743        0        
C4        C        0.71875        0.925925        0.5213459743589743        0        
C4        C        0.78125        0.925925        0.5213459743589743        0        
C4        C        0.84375        0.925925        0.5213459743589743        0        
C4        C        0.9062500000000001        0.925925        0.5213459743589743        0        
C4        C        0.9687500000000001        0.925925        0.5213459743589743        0        
O_CO        O        0.0        0.018519        0.0        -0.5        
O_CO        O        0.0        0.12963        0.0        -0.5        
O_CO        O        0.0        0.24074099999999998        0.0        -0.5        
O_CO        O        0.0        0.351852        0.0        -0.5        
O_CO        O        0.0        0.46296300000000007        0.0        -0.5        
O_CO        O        0.0        0.574075        0.0        -0.5        
O_CO        O        0.25        0.018519        0.0        -0.5        
O_CO        O        0.25        0.12963        0.0        -0.5        
O_CO        O        0.25        0.24074099999999998        0.0        -0.5        
O_CO        O        0.25        0.351852        0.0        -0.5        
O_CO        O        0.25        0.46296300000000007        0.0        -0.5        
O_CO        O        0.25        0.574075        0.0        -0.5        
O_CO        O        0.75        0.018519        0.0        -0.5        
O_CO        O        0.75        0.12963        0.0        -0.5        
O_CO        O        0.75        0.24074099999999998        0.0        -0.5        
O_CO        O        0.75        0.351852        0.0        -0.5        
O_CO        O        0.75        0.46296300000000007        0.0        -0.5        
O_CO        O        0.75        0.574075        0.0        -0.5        
O_CO        O        0.0        0.685186        0.0        -0.5        
O_CO        O        0.25        0.685186        0.0        -0.5        
O_CO        O        0.75        0.685186        0.0        -0.5        
O_CO        O        0.0        0.796297        0.0        -0.5        
O_CO        O        0.25        0.796297        0.0        -0.5        
O_CO        O        0.75        0.796297        0.0        -0.5        
O_CO        O        0.0        0.907408        0.0        -0.5        
O_CO        O        0.25        0.907408        0.0        -0.5        
O_CO        O        0.75        0.907408        0.0        -0.5        
O_CO        O        0.0        0.018519        0.6132051282051282        -0.5        
O_CO        O        0.0        0.12963        0.6132051282051282        -0.5        
O_CO        O        0.0        0.24074099999999998        0.6132051282051282        -0.5        
O_CO        O        0.0        0.351852        0.6132051282051282        -0.5        
O_CO        O        0.0        0.46296300000000007        0.6132051282051282        -0.5        
O_CO        O        0.0        0.574075        0.6132051282051282        -0.5        
O_CO        O        0.25        0.018519        0.6132051282051282        -0.5        
O_CO        O        0.25        0.12963        0.6132051282051282        -0.5        
O_CO        O        0.25        0.24074099999999998        0.6132051282051282        -0.5        
O_CO        O        0.25        0.351852        0.6132051282051282        -0.5        
O_CO        O        0.25        0.46296300000000007        0.6132051282051282        -0.5        
O_CO        O        0.25        0.574075        0.6132051282051282        -0.5        
O_CO        O        0.75        0.018519        0.6132051282051282        -0.5        
O_CO        O        0.75        0.12963        0.6132051282051282        -0.5        
O_CO        O        0.75        0.24074099999999998        0.6132051282051282        -0.5        
O_CO        O        0.75        0.351852        0.6132051282051282        -0.5        
O_CO        O        0.75        0.46296300000000007        0.6132051282051282        -0.5        
O_CO        O        0.75        0.574075        0.6132051282051282        -0.5        
O_CO        O        0.0        0.685186        0.6132051282051282        -0.5        
O_CO        O        0.25        0.685186        0.6132051282051282        -0.5        
O_CO        O        0.75        0.685186        0.6132051282051282        -0.5        
O_CO        O        0.0        0.796297        0.6132051282051282        -0.5        
O_CO        O        0.25        0.796297        0.6132051282051282        -0.5        
O_CO        O        0.75        0.796297        0.6132051282051282        -0.5        
O_CO        O        0.0        0.907408        0.6132051282051282        -0.5        
O_CO        O        0.25        0.907408        0.6132051282051282        -0.5        
O_CO        O        0.75        0.907408        0.6132051282051282        -0.5        
