data_graphite_ortho

_audit_creation_method RASPA-1.0
_audit_creation_date 2012-2-3
_audit_author_name 'David Dubbeldam'

_cell_length_a    39.36    
_cell_length_b    38.339999999999996    
_cell_length_c    13.7    
_cell_angle_alpha 90
_cell_angle_beta  90
_cell_angle_gamma 90
_cell_volume      20674.15      

_symmetry_cell_setting          triclinic
_symmetry_space_group_name_Hall 'P 1'
_symmetry_space_group_name_H-M  'P 1'
_symmetry_Int_Tables_number     1

_symmetry_equiv_pos_as_xyz 'x,y,z'

loop_
_atom_site_label
_atom_site_type_symbol
_atom_site_fract_x
_atom_site_fract_y
_atom_site_fract_z
_atom_site_charge
C_FG        C        0.0        0.018519        0.12913861313868613        0.2        
C2        C        0.03125        0.074075        0.12913861313868613        0        
C_FG        C        0.0        0.092592        0.12913861313868613        0.2        
C4        C        0.03125        0.037037        0.12913861313868613        0        
C_FG        C        0.0        0.12963        0.12913861313868613        0.2        
C2        C        0.03125        0.185185        0.12913861313868613        0        
C_FG        C        0.0        0.203703        0.12913861313868613        0.2        
C4        C        0.03125        0.148148        0.12913861313868613        0        
C_FG        C        0.0        0.24074099999999998        0.12913861313868613        0.2        
C2        C        0.03125        0.296297        0.12913861313868613        0        
C_FG        C        0.0        0.314815        0.12913861313868613        0.2        
C4        C        0.03125        0.259259        0.12913861313868613        0        
C_FG        C        0.0        0.351852        0.12913861313868613        0.2        
C2        C        0.03125        0.407408        0.12913861313868613        0        
C_FG        C        0.0        0.425925        0.12913861313868613        0.2        
C4        C        0.03125        0.37037        0.12913861313868613        0        
C_FG        C        0.0        0.46296300000000007        0.12913861313868613        0.2        
C2        C        0.03125        0.518519        0.12913861313868613        0        
C_FG        C        0.0        0.537037        0.12913861313868613        0.2        
C4        C        0.03125        0.481481        0.12913861313868613        0        
C_FG        C        0.0        0.574075        0.12913861313868613        0.2        
C2        C        0.03125        0.62963        0.12913861313868613        0        
C_FG        C        0.0        0.648148        0.12913861313868613        0.2        
C4        C        0.03125        0.592592        0.12913861313868613        0        
C1        C        0.0625        0.018519        0.12913861313868613        0        
C2        C        0.09375        0.074075        0.12913861313868613        0        
C3        C        0.0625        0.092592        0.12913861313868613        0        
C4        C        0.09375        0.037037        0.12913861313868613        0        
C1        C        0.0625        0.12963        0.12913861313868613        0        
C2        C        0.09375        0.185185        0.12913861313868613        0        
C3        C        0.0625        0.203703        0.12913861313868613        0        
C4        C        0.09375        0.148148        0.12913861313868613        0        
C1        C        0.0625        0.24074099999999998        0.12913861313868613        0        
C2        C        0.09375        0.296297        0.12913861313868613        0        
C3        C        0.0625        0.314815        0.12913861313868613        0        
C4        C        0.09375        0.259259        0.12913861313868613        0        
C1        C        0.0625        0.351852        0.12913861313868613        0        
C2        C        0.09375        0.407408        0.12913861313868613        0        
C3        C        0.0625        0.425925        0.12913861313868613        0        
C4        C        0.09375        0.37037        0.12913861313868613        0        
C1        C        0.0625        0.46296300000000007        0.12913861313868613        0        
C2        C        0.09375        0.518519        0.12913861313868613        0        
C3        C        0.0625        0.537037        0.12913861313868613        0        
C4        C        0.09375        0.481481        0.12913861313868613        0        
C1        C        0.0625        0.574075        0.12913861313868613        0        
C2        C        0.09375        0.62963        0.12913861313868613        0        
C3        C        0.0625        0.648148        0.12913861313868613        0        
C4        C        0.09375        0.592592        0.12913861313868613        0        
C_FG        C        0.125        0.018519        0.12913861313868613        0.2        
C2        C        0.15625        0.074075        0.12913861313868613        0        
C_FG        C        0.125        0.092592        0.12913861313868613        0.2        
C4        C        0.15625        0.037037        0.12913861313868613        0        
C_FG        C        0.125        0.12963        0.12913861313868613        0.2        
C2        C        0.15625        0.185185        0.12913861313868613        0        
C_FG        C        0.125        0.203703        0.12913861313868613        0.2        
C4        C        0.15625        0.148148        0.12913861313868613        0        
C_FG        C        0.125        0.24074099999999998        0.12913861313868613        0.2        
C2        C        0.15625        0.296297        0.12913861313868613        0        
C_FG        C        0.125        0.314815        0.12913861313868613        0.2        
C4        C        0.15625        0.259259        0.12913861313868613        0        
C_FG        C        0.125        0.351852        0.12913861313868613        0.2        
C2        C        0.15625        0.407408        0.12913861313868613        0        
C_FG        C        0.125        0.425925        0.12913861313868613        0.2        
C4        C        0.15625        0.37037        0.12913861313868613        0        
C_FG        C        0.125        0.46296300000000007        0.12913861313868613        0.2        
C2        C        0.15625        0.518519        0.12913861313868613        0        
C_FG        C        0.125        0.537037        0.12913861313868613        0.2        
C4        C        0.15625        0.481481        0.12913861313868613        0        
C_FG        C        0.125        0.574075        0.12913861313868613        0.2        
C2        C        0.15625        0.62963        0.12913861313868613        0        
C_FG        C        0.125        0.648148        0.12913861313868613        0.2        
C4        C        0.15625        0.592592        0.12913861313868613        0        
C1        C        0.1875        0.018519        0.12913861313868613        0        
C2        C        0.21875        0.074075        0.12913861313868613        0        
C3        C        0.1875        0.092592        0.12913861313868613        0        
C4        C        0.21875        0.037037        0.12913861313868613        0        
C1        C        0.1875        0.12963        0.12913861313868613        0        
C2        C        0.21875        0.185185        0.12913861313868613        0        
C3        C        0.1875        0.203703        0.12913861313868613        0        
C4        C        0.21875        0.148148        0.12913861313868613        0        
C1        C        0.1875        0.24074099999999998        0.12913861313868613        0        
C2        C        0.21875        0.296297        0.12913861313868613        0        
C3        C        0.1875        0.314815        0.12913861313868613        0        
C4        C        0.21875        0.259259        0.12913861313868613        0        
C1        C        0.1875        0.351852        0.12913861313868613        0        
C2        C        0.21875        0.407408        0.12913861313868613        0        
C3        C        0.1875        0.425925        0.12913861313868613        0        
C4        C        0.21875        0.37037        0.12913861313868613        0        
C1        C        0.1875        0.46296300000000007        0.12913861313868613        0        
C2        C        0.21875        0.518519        0.12913861313868613        0        
C3        C        0.1875        0.537037        0.12913861313868613        0        
C4        C        0.21875        0.481481        0.12913861313868613        0        
C1        C        0.1875        0.574075        0.12913861313868613        0        
C2        C        0.21875        0.62963        0.12913861313868613        0        
C3        C        0.1875        0.648148        0.12913861313868613        0        
C4        C        0.21875        0.592592        0.12913861313868613        0        
C1        C        0.25        0.018519        0.12913861313868613        0        
C_FG        C        0.28125        0.074075        0.12913861313868613        0.2        
C3        C        0.25        0.092592        0.12913861313868613        0        
C_FG        C        0.28125        0.037037        0.12913861313868613        0.2        
C1        C        0.25        0.12963        0.12913861313868613        0        
C_FG        C        0.28125        0.185185        0.12913861313868613        0.2        
C3        C        0.25        0.203703        0.12913861313868613        0        
C_FG        C        0.28125        0.148148        0.12913861313868613        0.2        
C1        C        0.25        0.24074099999999998        0.12913861313868613        0        
C_FG        C        0.28125        0.296297        0.12913861313868613        0.2        
C3        C        0.25        0.314815        0.12913861313868613        0        
C_FG        C        0.28125        0.259259        0.12913861313868613        0.2        
C1        C        0.25        0.351852        0.12913861313868613        0        
C_FG        C        0.28125        0.407408        0.12913861313868613        0.2        
C3        C        0.25        0.425925        0.12913861313868613        0        
C_FG        C        0.28125        0.37037        0.12913861313868613        0.2        
C1        C        0.25        0.46296300000000007        0.12913861313868613        0        
C_FG        C        0.28125        0.518519        0.12913861313868613        0.2        
C3        C        0.25        0.537037        0.12913861313868613        0        
C_FG        C        0.28125        0.481481        0.12913861313868613        0.2        
C1        C        0.25        0.574075        0.12913861313868613        0        
C_FG        C        0.28125        0.62963        0.12913861313868613        0.2        
C3        C        0.25        0.648148        0.12913861313868613        0        
C_FG        C        0.28125        0.592592        0.12913861313868613        0.2        
C1        C        0.3125        0.018519        0.12913861313868613        0        
C2        C        0.34375        0.074075        0.12913861313868613        0        
C3        C        0.3125        0.092592        0.12913861313868613        0        
C4        C        0.34375        0.037037        0.12913861313868613        0        
C1        C        0.3125        0.12963        0.12913861313868613        0        
C2        C        0.34375        0.185185        0.12913861313868613        0        
C3        C        0.3125        0.203703        0.12913861313868613        0        
C4        C        0.34375        0.148148        0.12913861313868613        0        
C1        C        0.3125        0.24074099999999998        0.12913861313868613        0        
C2        C        0.34375        0.296297        0.12913861313868613        0        
C3        C        0.3125        0.314815        0.12913861313868613        0        
C4        C        0.34375        0.259259        0.12913861313868613        0        
C1        C        0.3125        0.351852        0.12913861313868613        0        
C2        C        0.34375        0.407408        0.12913861313868613        0        
C3        C        0.3125        0.425925        0.12913861313868613        0        
C4        C        0.34375        0.37037        0.12913861313868613        0        
C1        C        0.3125        0.46296300000000007        0.12913861313868613        0        
C2        C        0.34375        0.518519        0.12913861313868613        0        
C3        C        0.3125        0.537037        0.12913861313868613        0        
C4        C        0.34375        0.481481        0.12913861313868613        0        
C1        C        0.3125        0.574075        0.12913861313868613        0        
C2        C        0.34375        0.62963        0.12913861313868613        0        
C3        C        0.3125        0.648148        0.12913861313868613        0        
C4        C        0.34375        0.592592        0.12913861313868613        0        
C_FG        C        0.375        0.018519        0.12913861313868613        0.2        
C2        C        0.40625        0.074075        0.12913861313868613        0        
C_FG        C        0.375        0.092592        0.12913861313868613        0.2        
C4        C        0.40625        0.037037        0.12913861313868613        0        
C_FG        C        0.375        0.12963        0.12913861313868613        0.2        
C2        C        0.40625        0.185185        0.12913861313868613        0        
C_FG        C        0.375        0.203703        0.12913861313868613        0.2        
C4        C        0.40625        0.148148        0.12913861313868613        0        
C_FG        C        0.375        0.24074099999999998        0.12913861313868613        0.2        
C2        C        0.40625        0.296297        0.12913861313868613        0        
C_FG        C        0.375        0.314815        0.12913861313868613        0.2        
C4        C        0.40625        0.259259        0.12913861313868613        0        
C_FG        C        0.375        0.351852        0.12913861313868613        0.2        
C2        C        0.40625        0.407408        0.12913861313868613        0        
C_FG        C        0.375        0.425925        0.12913861313868613        0.2        
C4        C        0.40625        0.37037        0.12913861313868613        0        
C_FG        C        0.375        0.46296300000000007        0.12913861313868613        0.2        
C2        C        0.40625        0.518519        0.12913861313868613        0        
C_FG        C        0.375        0.537037        0.12913861313868613        0.2        
C4        C        0.40625        0.481481        0.12913861313868613        0        
C_FG        C        0.375        0.574075        0.12913861313868613        0.2        
C2        C        0.40625        0.62963        0.12913861313868613        0        
C_FG        C        0.375        0.648148        0.12913861313868613        0.2        
C4        C        0.40625        0.592592        0.12913861313868613        0        
C1        C        0.4375        0.018519        0.12913861313868613        0        
C2        C        0.46875        0.074075        0.12913861313868613        0        
C3        C        0.4375        0.092592        0.12913861313868613        0        
C4        C        0.46875        0.037037        0.12913861313868613        0        
C1        C        0.4375        0.12963        0.12913861313868613        0        
C2        C        0.46875        0.185185        0.12913861313868613        0        
C3        C        0.4375        0.203703        0.12913861313868613        0        
C4        C        0.46875        0.148148        0.12913861313868613        0        
C1        C        0.4375        0.24074099999999998        0.12913861313868613        0        
C2        C        0.46875        0.296297        0.12913861313868613        0        
C3        C        0.4375        0.314815        0.12913861313868613        0        
C4        C        0.46875        0.259259        0.12913861313868613        0        
C1        C        0.4375        0.351852        0.12913861313868613        0        
C2        C        0.46875        0.407408        0.12913861313868613        0        
C3        C        0.4375        0.425925        0.12913861313868613        0        
C4        C        0.46875        0.37037        0.12913861313868613        0        
C1        C        0.4375        0.46296300000000007        0.12913861313868613        0        
C2        C        0.46875        0.518519        0.12913861313868613        0        
C3        C        0.4375        0.537037        0.12913861313868613        0        
C4        C        0.46875        0.481481        0.12913861313868613        0        
C1        C        0.4375        0.574075        0.12913861313868613        0        
C2        C        0.46875        0.62963        0.12913861313868613        0        
C3        C        0.4375        0.648148        0.12913861313868613        0        
C4        C        0.46875        0.592592        0.12913861313868613        0        
C1        C        0.5        0.018519        0.12913861313868613        0        
C2        C        0.53125        0.074075        0.12913861313868613        0        
C3        C        0.5        0.092592        0.12913861313868613        0        
C4        C        0.53125        0.037037        0.12913861313868613        0        
C1        C        0.5        0.12963        0.12913861313868613        0        
C2        C        0.53125        0.185185        0.12913861313868613        0        
C3        C        0.5        0.203703        0.12913861313868613        0        
C4        C        0.53125        0.148148        0.12913861313868613        0        
C1        C        0.5        0.24074099999999998        0.12913861313868613        0        
C2        C        0.53125        0.296297        0.12913861313868613        0        
C3        C        0.5        0.314815        0.12913861313868613        0        
C4        C        0.53125        0.259259        0.12913861313868613        0        
C1        C        0.5        0.351852        0.12913861313868613        0        
C2        C        0.53125        0.407408        0.12913861313868613        0        
C3        C        0.5        0.425925        0.12913861313868613        0        
C4        C        0.53125        0.37037        0.12913861313868613        0        
C1        C        0.5        0.46296300000000007        0.12913861313868613        0        
C2        C        0.53125        0.518519        0.12913861313868613        0        
C3        C        0.5        0.537037        0.12913861313868613        0        
C4        C        0.53125        0.481481        0.12913861313868613        0        
C1        C        0.5        0.574075        0.12913861313868613        0        
C2        C        0.53125        0.62963        0.12913861313868613        0        
C3        C        0.5        0.648148        0.12913861313868613        0        
C4        C        0.53125        0.592592        0.12913861313868613        0        
C1        C        0.5625        0.018519        0.12913861313868613        0        
C2        C        0.59375        0.074075        0.12913861313868613        0        
C3        C        0.5625        0.092592        0.12913861313868613        0        
C4        C        0.59375        0.037037        0.12913861313868613        0        
C1        C        0.5625        0.12963        0.12913861313868613        0        
C2        C        0.59375        0.185185        0.12913861313868613        0        
C3        C        0.5625        0.203703        0.12913861313868613        0        
C4        C        0.59375        0.148148        0.12913861313868613        0        
C1        C        0.5625        0.24074099999999998        0.12913861313868613        0        
C2        C        0.59375        0.296297        0.12913861313868613        0        
C3        C        0.5625        0.314815        0.12913861313868613        0        
C4        C        0.59375        0.259259        0.12913861313868613        0        
C1        C        0.5625        0.351852        0.12913861313868613        0        
C2        C        0.59375        0.407408        0.12913861313868613        0        
C3        C        0.5625        0.425925        0.12913861313868613        0        
C4        C        0.59375        0.37037        0.12913861313868613        0        
C1        C        0.5625        0.46296300000000007        0.12913861313868613        0        
C2        C        0.59375        0.518519        0.12913861313868613        0        
C3        C        0.5625        0.537037        0.12913861313868613        0        
C4        C        0.59375        0.481481        0.12913861313868613        0        
C1        C        0.5625        0.574075        0.12913861313868613        0        
C2        C        0.59375        0.62963        0.12913861313868613        0        
C3        C        0.5625        0.648148        0.12913861313868613        0        
C4        C        0.59375        0.592592        0.12913861313868613        0        
C1        C        0.625        0.018519        0.12913861313868613        0        
C2        C        0.65625        0.074075        0.12913861313868613        0        
C3        C        0.625        0.092592        0.12913861313868613        0        
C4        C        0.65625        0.037037        0.12913861313868613        0        
C1        C        0.625        0.12963        0.12913861313868613        0        
C2        C        0.65625        0.185185        0.12913861313868613        0        
C3        C        0.625        0.203703        0.12913861313868613        0        
C4        C        0.65625        0.148148        0.12913861313868613        0        
C1        C        0.625        0.24074099999999998        0.12913861313868613        0        
C2        C        0.65625        0.296297        0.12913861313868613        0        
C3        C        0.625        0.314815        0.12913861313868613        0        
C4        C        0.65625        0.259259        0.12913861313868613        0        
C1        C        0.625        0.351852        0.12913861313868613        0        
C2        C        0.65625        0.407408        0.12913861313868613        0        
C3        C        0.625        0.425925        0.12913861313868613        0        
C4        C        0.65625        0.37037        0.12913861313868613        0        
C1        C        0.625        0.46296300000000007        0.12913861313868613        0        
C2        C        0.65625        0.518519        0.12913861313868613        0        
C3        C        0.625        0.537037        0.12913861313868613        0        
C4        C        0.65625        0.481481        0.12913861313868613        0        
C1        C        0.625        0.574075        0.12913861313868613        0        
C2        C        0.65625        0.62963        0.12913861313868613        0        
C3        C        0.625        0.648148        0.12913861313868613        0        
C4        C        0.65625        0.592592        0.12913861313868613        0        
C_FG        C        0.6875        0.018519        0.12913861313868613        0.2        
C2        C        0.71875        0.074075        0.12913861313868613        0        
C_FG        C        0.6875        0.092592        0.12913861313868613        0.2        
C4        C        0.71875        0.037037        0.12913861313868613        0        
C_FG        C        0.6875        0.12963        0.12913861313868613        0.2        
C2        C        0.71875        0.185185        0.12913861313868613        0        
C_FG        C        0.6875        0.203703        0.12913861313868613        0.2        
C4        C        0.71875        0.148148        0.12913861313868613        0        
C_FG        C        0.6875        0.24074099999999998        0.12913861313868613        0.2        
C2        C        0.71875        0.296297        0.12913861313868613        0        
C_FG        C        0.6875        0.314815        0.12913861313868613        0.2        
C4        C        0.71875        0.259259        0.12913861313868613        0        
C_FG        C        0.6875        0.351852        0.12913861313868613        0.2        
C2        C        0.71875        0.407408        0.12913861313868613        0        
C_FG        C        0.6875        0.425925        0.12913861313868613        0.2        
C4        C        0.71875        0.37037        0.12913861313868613        0        
C_FG        C        0.6875        0.46296300000000007        0.12913861313868613        0.2        
C2        C        0.71875        0.518519        0.12913861313868613        0        
C_FG        C        0.6875        0.537037        0.12913861313868613        0.2        
C4        C        0.71875        0.481481        0.12913861313868613        0        
C_FG        C        0.6875        0.574075        0.12913861313868613        0.2        
C2        C        0.71875        0.62963        0.12913861313868613        0        
C_FG        C        0.6875        0.648148        0.12913861313868613        0.2        
C4        C        0.71875        0.592592        0.12913861313868613        0        
C1        C        0.75        0.018519        0.12913861313868613        0        
C2        C        0.78125        0.074075        0.12913861313868613        0        
C3        C        0.75        0.092592        0.12913861313868613        0        
C4        C        0.78125        0.037037        0.12913861313868613        0        
C1        C        0.75        0.12963        0.12913861313868613        0        
C2        C        0.78125        0.185185        0.12913861313868613        0        
C3        C        0.75        0.203703        0.12913861313868613        0        
C4        C        0.78125        0.148148        0.12913861313868613        0        
C1        C        0.75        0.24074099999999998        0.12913861313868613        0        
C2        C        0.78125        0.296297        0.12913861313868613        0        
C3        C        0.75        0.314815        0.12913861313868613        0        
C4        C        0.78125        0.259259        0.12913861313868613        0        
C1        C        0.75        0.351852        0.12913861313868613        0        
C2        C        0.78125        0.407408        0.12913861313868613        0        
C3        C        0.75        0.425925        0.12913861313868613        0        
C4        C        0.78125        0.37037        0.12913861313868613        0        
C1        C        0.75        0.46296300000000007        0.12913861313868613        0        
C2        C        0.78125        0.518519        0.12913861313868613        0        
C3        C        0.75        0.537037        0.12913861313868613        0        
C4        C        0.78125        0.481481        0.12913861313868613        0        
C1        C        0.75        0.574075        0.12913861313868613        0        
C2        C        0.78125        0.62963        0.12913861313868613        0        
C3        C        0.75        0.648148        0.12913861313868613        0        
C4        C        0.78125        0.592592        0.12913861313868613        0        
C_FG        C        0.8125        0.018519        0.12913861313868613        0.2        
C2        C        0.84375        0.074075        0.12913861313868613        0        
C_FG        C        0.8125        0.092592        0.12913861313868613        0.2        
C4        C        0.84375        0.037037        0.12913861313868613        0        
C_FG        C        0.8125        0.12963        0.12913861313868613        0.2        
C2        C        0.84375        0.185185        0.12913861313868613        0        
C_FG        C        0.8125        0.203703        0.12913861313868613        0.2        
C4        C        0.84375        0.148148        0.12913861313868613        0        
C_FG        C        0.8125        0.24074099999999998        0.12913861313868613        0.2        
C2        C        0.84375        0.296297        0.12913861313868613        0        
C_FG        C        0.8125        0.314815        0.12913861313868613        0.2        
C4        C        0.84375        0.259259        0.12913861313868613        0        
C_FG        C        0.8125        0.351852        0.12913861313868613        0.2        
C2        C        0.84375        0.407408        0.12913861313868613        0        
C_FG        C        0.8125        0.425925        0.12913861313868613        0.2        
C4        C        0.84375        0.37037        0.12913861313868613        0        
C_FG        C        0.8125        0.46296300000000007        0.12913861313868613        0.2        
C2        C        0.84375        0.518519        0.12913861313868613        0        
C_FG        C        0.8125        0.537037        0.12913861313868613        0.2        
C4        C        0.84375        0.481481        0.12913861313868613        0        
C_FG        C        0.8125        0.574075        0.12913861313868613        0.2        
C2        C        0.84375        0.62963        0.12913861313868613        0        
C_FG        C        0.8125        0.648148        0.12913861313868613        0.2        
C4        C        0.84375        0.592592        0.12913861313868613        0        
C1        C        0.875        0.018519        0.12913861313868613        0        
C_FG        C        0.9062500000000001        0.074075        0.12913861313868613        0.2        
C3        C        0.875        0.092592        0.12913861313868613        0        
C_FG        C        0.9062500000000001        0.037037        0.12913861313868613        0.2        
C1        C        0.875        0.12963        0.12913861313868613        0        
C_FG        C        0.9062500000000001        0.185185        0.12913861313868613        0.2        
C3        C        0.875        0.203703        0.12913861313868613        0        
C_FG        C        0.9062500000000001        0.148148        0.12913861313868613        0.2        
C1        C        0.875        0.24074099999999998        0.12913861313868613        0        
C_FG        C        0.9062500000000001        0.296297        0.12913861313868613        0.2        
C3        C        0.875        0.314815        0.12913861313868613        0        
C_FG        C        0.9062500000000001        0.259259        0.12913861313868613        0.2        
C1        C        0.875        0.351852        0.12913861313868613        0        
C_FG        C        0.9062500000000001        0.407408        0.12913861313868613        0.2        
C3        C        0.875        0.425925        0.12913861313868613        0        
C_FG        C        0.9062500000000001        0.37037        0.12913861313868613        0.2        
C1        C        0.875        0.46296300000000007        0.12913861313868613        0        
C_FG        C        0.9062500000000001        0.518519        0.12913861313868613        0.2        
C3        C        0.875        0.537037        0.12913861313868613        0        
C_FG        C        0.9062500000000001        0.481481        0.12913861313868613        0.2        
C1        C        0.875        0.574075        0.12913861313868613        0        
C_FG        C        0.9062500000000001        0.62963        0.12913861313868613        0.2        
C3        C        0.875        0.648148        0.12913861313868613        0        
C_FG        C        0.9062500000000001        0.592592        0.12913861313868613        0.2        
C1        C        0.9375        0.018519        0.12913861313868613        0        
C_FG        C        0.9687500000000001        0.074075        0.12913861313868613        0.2        
C3        C        0.9375        0.092592        0.12913861313868613        0        
C_FG        C        0.9687500000000001        0.037037        0.12913861313868613        0.2        
C1        C        0.9375        0.12963        0.12913861313868613        0        
C_FG        C        0.9687500000000001        0.185185        0.12913861313868613        0.2        
C3        C        0.9375        0.203703        0.12913861313868613        0        
C_FG        C        0.9687500000000001        0.148148        0.12913861313868613        0.2        
C1        C        0.9375        0.24074099999999998        0.12913861313868613        0        
C_FG        C        0.9687500000000001        0.296297        0.12913861313868613        0.2        
C3        C        0.9375        0.314815        0.12913861313868613        0        
C_FG        C        0.9687500000000001        0.259259        0.12913861313868613        0.2        
C1        C        0.9375        0.351852        0.12913861313868613        0        
C_FG        C        0.9687500000000001        0.407408        0.12913861313868613        0.2        
C3        C        0.9375        0.425925        0.12913861313868613        0        
C_FG        C        0.9687500000000001        0.37037        0.12913861313868613        0.2        
C1        C        0.9375        0.46296300000000007        0.12913861313868613        0        
C_FG        C        0.9687500000000001        0.518519        0.12913861313868613        0.2        
C3        C        0.9375        0.537037        0.12913861313868613        0        
C_FG        C        0.9687500000000001        0.481481        0.12913861313868613        0.2        
C1        C        0.9375        0.574075        0.12913861313868613        0        
C_FG        C        0.9687500000000001        0.62963        0.12913861313868613        0.2        
C3        C        0.9375        0.648148        0.12913861313868613        0        
C_FG        C        0.9687500000000001        0.592592        0.12913861313868613        0.2        
C_FG        C        0.0        0.685186        0.12913861313868613        0.2        
C1        C        0.0625        0.685186        0.12913861313868613        0        
C_FG        C        0.125        0.685186        0.12913861313868613        0.2        
C1        C        0.1875        0.685186        0.12913861313868613        0        
C1        C        0.25        0.685186        0.12913861313868613        0        
C1        C        0.3125        0.685186        0.12913861313868613        0        
C_FG        C        0.375        0.685186        0.12913861313868613        0.2        
C1        C        0.4375        0.685186        0.12913861313868613        0        
C1        C        0.5        0.685186        0.12913861313868613        0        
C1        C        0.5625        0.685186        0.12913861313868613        0        
C1        C        0.625        0.685186        0.12913861313868613        0        
C_FG        C        0.6875        0.685186        0.12913861313868613        0.2        
C1        C        0.75        0.685186        0.12913861313868613        0        
C_FG        C        0.8125        0.685186        0.12913861313868613        0.2        
C1        C        0.875        0.685186        0.12913861313868613        0        
C1        C        0.9375        0.685186        0.12913861313868613        0        
C2        C        0.03125        0.740741        0.12913861313868613        0        
C2        C        0.09375        0.740741        0.12913861313868613        0        
C2        C        0.15625        0.740741        0.12913861313868613        0        
C2        C        0.21875        0.740741        0.12913861313868613        0        
C_FG        C        0.28125        0.740741        0.12913861313868613        0.2        
C2        C        0.34375        0.740741        0.12913861313868613        0        
C2        C        0.40625        0.740741        0.12913861313868613        0        
C2        C        0.46875        0.740741        0.12913861313868613        0        
C2        C        0.53125        0.740741        0.12913861313868613        0        
C2        C        0.59375        0.740741        0.12913861313868613        0        
C2        C        0.65625        0.740741        0.12913861313868613        0        
C2        C        0.71875        0.740741        0.12913861313868613        0        
C2        C        0.78125        0.740741        0.12913861313868613        0        
C2        C        0.84375        0.740741        0.12913861313868613        0        
C_FG        C        0.9062500000000001        0.740741        0.12913861313868613        0.2        
C_FG        C        0.9687500000000001        0.740741        0.12913861313868613        0.2        
C_FG        C        0.0        0.759259        0.12913861313868613        0.2        
C3        C        0.0625        0.759259        0.12913861313868613        0        
C_FG        C        0.125        0.759259        0.12913861313868613        0.2        
C3        C        0.1875        0.759259        0.12913861313868613        0        
C3        C        0.25        0.759259        0.12913861313868613        0        
C3        C        0.3125        0.759259        0.12913861313868613        0        
C_FG        C        0.375        0.759259        0.12913861313868613        0.2        
C3        C        0.4375        0.759259        0.12913861313868613        0        
C3        C        0.5        0.759259        0.12913861313868613        0        
C3        C        0.5625        0.759259        0.12913861313868613        0        
C3        C        0.625        0.759259        0.12913861313868613        0        
C_FG        C        0.6875        0.759259        0.12913861313868613        0.2        
C3        C        0.75        0.759259        0.12913861313868613        0        
C_FG        C        0.8125        0.759259        0.12913861313868613        0.2        
C3        C        0.875        0.759259        0.12913861313868613        0        
C3        C        0.9375        0.759259        0.12913861313868613        0        
C4        C        0.03125        0.703703        0.12913861313868613        0        
C4        C        0.09375        0.703703        0.12913861313868613        0        
C4        C        0.15625        0.703703        0.12913861313868613        0        
C4        C        0.21875        0.703703        0.12913861313868613        0        
C_FG        C        0.28125        0.703703        0.12913861313868613        0.2        
C4        C        0.34375        0.703703        0.12913861313868613        0        
C4        C        0.40625        0.703703        0.12913861313868613        0        
C4        C        0.46875        0.703703        0.12913861313868613        0        
C4        C        0.53125        0.703703        0.12913861313868613        0        
C4        C        0.59375        0.703703        0.12913861313868613        0        
C4        C        0.65625        0.703703        0.12913861313868613        0        
C4        C        0.71875        0.703703        0.12913861313868613        0        
C4        C        0.78125        0.703703        0.12913861313868613        0        
C4        C        0.84375        0.703703        0.12913861313868613        0        
C_FG        C        0.9062500000000001        0.703703        0.12913861313868613        0.2        
C_FG        C        0.9687500000000001        0.703703        0.12913861313868613        0.2        
C_FG        C        0.0        0.796297        0.12913861313868613        0.2        
C1        C        0.0625        0.796297        0.12913861313868613        0        
C_FG        C        0.125        0.796297        0.12913861313868613        0.2        
C1        C        0.1875        0.796297        0.12913861313868613        0        
C1        C        0.25        0.796297        0.12913861313868613        0        
C1        C        0.3125        0.796297        0.12913861313868613        0        
C_FG        C        0.375        0.796297        0.12913861313868613        0.2        
C1        C        0.4375        0.796297        0.12913861313868613        0        
C1        C        0.5        0.796297        0.12913861313868613        0        
C1        C        0.5625        0.796297        0.12913861313868613        0        
C1        C        0.625        0.796297        0.12913861313868613        0        
C_FG        C        0.6875        0.796297        0.12913861313868613        0.2        
C1        C        0.75        0.796297        0.12913861313868613        0        
C_FG        C        0.8125        0.796297        0.12913861313868613        0.2        
C1        C        0.875        0.796297        0.12913861313868613        0        
C1        C        0.9375        0.796297        0.12913861313868613        0        
C2        C        0.03125        0.851852        0.12913861313868613        0        
C2        C        0.09375        0.851852        0.12913861313868613        0        
C2        C        0.15625        0.851852        0.12913861313868613        0        
C2        C        0.21875        0.851852        0.12913861313868613        0        
C_FG        C        0.28125        0.851852        0.12913861313868613        0.2        
C2        C        0.34375        0.851852        0.12913861313868613        0        
C2        C        0.40625        0.851852        0.12913861313868613        0        
C2        C        0.46875        0.851852        0.12913861313868613        0        
C2        C        0.53125        0.851852        0.12913861313868613        0        
C2        C        0.59375        0.851852        0.12913861313868613        0        
C2        C        0.65625        0.851852        0.12913861313868613        0        
C2        C        0.71875        0.851852        0.12913861313868613        0        
C2        C        0.78125        0.851852        0.12913861313868613        0        
C2        C        0.84375        0.851852        0.12913861313868613        0        
C_FG        C        0.9062500000000001        0.851852        0.12913861313868613        0.2        
C_FG        C        0.9687500000000001        0.851852        0.12913861313868613        0.2        
C_FG        C        0.0        0.87037        0.12913861313868613        0.2        
C3        C        0.0625        0.87037        0.12913861313868613        0        
C_FG        C        0.125        0.87037        0.12913861313868613        0.2        
C3        C        0.1875        0.87037        0.12913861313868613        0        
C3        C        0.25        0.87037        0.12913861313868613        0        
C3        C        0.3125        0.87037        0.12913861313868613        0        
C_FG        C        0.375        0.87037        0.12913861313868613        0.2        
C3        C        0.4375        0.87037        0.12913861313868613        0        
C3        C        0.5        0.87037        0.12913861313868613        0        
C3        C        0.5625        0.87037        0.12913861313868613        0        
C3        C        0.625        0.87037        0.12913861313868613        0        
C_FG        C        0.6875        0.87037        0.12913861313868613        0.2        
C3        C        0.75        0.87037        0.12913861313868613        0        
C_FG        C        0.8125        0.87037        0.12913861313868613        0.2        
C3        C        0.875        0.87037        0.12913861313868613        0        
C3        C        0.9375        0.87037        0.12913861313868613        0        
C4        C        0.03125        0.814814        0.12913861313868613        0        
C4        C        0.09375        0.814814        0.12913861313868613        0        
C4        C        0.15625        0.814814        0.12913861313868613        0        
C4        C        0.21875        0.814814        0.12913861313868613        0        
C_FG        C        0.28125        0.814814        0.12913861313868613        0.2        
C4        C        0.34375        0.814814        0.12913861313868613        0        
C4        C        0.40625        0.814814        0.12913861313868613        0        
C4        C        0.46875        0.814814        0.12913861313868613        0        
C4        C        0.53125        0.814814        0.12913861313868613        0        
C4        C        0.59375        0.814814        0.12913861313868613        0        
C4        C        0.65625        0.814814        0.12913861313868613        0        
C4        C        0.71875        0.814814        0.12913861313868613        0        
C4        C        0.78125        0.814814        0.12913861313868613        0        
C4        C        0.84375        0.814814        0.12913861313868613        0        
C_FG        C        0.9062500000000001        0.814814        0.12913861313868613        0.2        
C_FG        C        0.9687500000000001        0.814814        0.12913861313868613        0.2        
C_FG        C        0.0        0.907408        0.12913861313868613        0.2        
C1        C        0.0625        0.907408        0.12913861313868613        0        
C_FG        C        0.125        0.907408        0.12913861313868613        0.2        
C1        C        0.1875        0.907408        0.12913861313868613        0        
C1        C        0.25        0.907408        0.12913861313868613        0        
C1        C        0.3125        0.907408        0.12913861313868613        0        
C_FG        C        0.375        0.907408        0.12913861313868613        0.2        
C1        C        0.4375        0.907408        0.12913861313868613        0        
C1        C        0.5        0.907408        0.12913861313868613        0        
C1        C        0.5625        0.907408        0.12913861313868613        0        
C1        C        0.625        0.907408        0.12913861313868613        0        
C_FG        C        0.6875        0.907408        0.12913861313868613        0.2        
C1        C        0.75        0.907408        0.12913861313868613        0        
C_FG        C        0.8125        0.907408        0.12913861313868613        0.2        
C1        C        0.875        0.907408        0.12913861313868613        0        
C1        C        0.9375        0.907408        0.12913861313868613        0        
C2        C        0.03125        0.962963        0.12913861313868613        0        
C2        C        0.09375        0.962963        0.12913861313868613        0        
C2        C        0.15625        0.962963        0.12913861313868613        0        
C2        C        0.21875        0.962963        0.12913861313868613        0        
C_FG        C        0.28125        0.962963        0.12913861313868613        0.2        
C2        C        0.34375        0.962963        0.12913861313868613        0        
C2        C        0.40625        0.962963        0.12913861313868613        0        
C2        C        0.46875        0.962963        0.12913861313868613        0        
C2        C        0.53125        0.962963        0.12913861313868613        0        
C2        C        0.59375        0.962963        0.12913861313868613        0        
C2        C        0.65625        0.962963        0.12913861313868613        0        
C2        C        0.71875        0.962963        0.12913861313868613        0        
C2        C        0.78125        0.962963        0.12913861313868613        0        
C2        C        0.84375        0.962963        0.12913861313868613        0        
C_FG        C        0.9062500000000001        0.962963        0.12913861313868613        0.2        
C_FG        C        0.9687500000000001        0.962963        0.12913861313868613        0.2        
C_FG        C        0.0        0.9814809999999999        0.12913861313868613        0.2        
C3        C        0.0625        0.9814809999999999        0.12913861313868613        0        
C_FG        C        0.125        0.9814809999999999        0.12913861313868613        0.2        
C3        C        0.1875        0.9814809999999999        0.12913861313868613        0        
C3        C        0.25        0.9814809999999999        0.12913861313868613        0        
C3        C        0.3125        0.9814809999999999        0.12913861313868613        0        
C_FG        C        0.375        0.9814809999999999        0.12913861313868613        0.2        
C3        C        0.4375        0.9814809999999999        0.12913861313868613        0        
C3        C        0.5        0.9814809999999999        0.12913861313868613        0        
C3        C        0.5625        0.9814809999999999        0.12913861313868613        0        
C3        C        0.625        0.9814809999999999        0.12913861313868613        0        
C_FG        C        0.6875        0.9814809999999999        0.12913861313868613        0.2        
C3        C        0.75        0.9814809999999999        0.12913861313868613        0        
C_FG        C        0.8125        0.9814809999999999        0.12913861313868613        0.2        
C3        C        0.875        0.9814809999999999        0.12913861313868613        0        
C3        C        0.9375        0.9814809999999999        0.12913861313868613        0        
C4        C        0.03125        0.925925        0.12913861313868613        0        
C4        C        0.09375        0.925925        0.12913861313868613        0        
C4        C        0.15625        0.925925        0.12913861313868613        0        
C4        C        0.21875        0.925925        0.12913861313868613        0        
C_FG        C        0.28125        0.925925        0.12913861313868613        0.2        
C4        C        0.34375        0.925925        0.12913861313868613        0        
C4        C        0.40625        0.925925        0.12913861313868613        0        
C4        C        0.46875        0.925925        0.12913861313868613        0        
C4        C        0.53125        0.925925        0.12913861313868613        0        
C4        C        0.59375        0.925925        0.12913861313868613        0        
C4        C        0.65625        0.925925        0.12913861313868613        0        
C4        C        0.71875        0.925925        0.12913861313868613        0        
C4        C        0.78125        0.925925        0.12913861313868613        0        
C4        C        0.84375        0.925925        0.12913861313868613        0        
C_FG        C        0.9062500000000001        0.925925        0.12913861313868613        0.2        
C_FG        C        0.9687500000000001        0.925925        0.12913861313868613        0.2        
C1        C        0.0        0.018519        0.3736641605839415        0        
C2        C        0.03125        0.074075        0.3736641605839415        0        
C3        C        0.0        0.092592        0.3736641605839415        0        
C4        C        0.03125        0.037037        0.3736641605839415        0        
C1        C        0.0        0.12963        0.3736641605839415        0        
C2        C        0.03125        0.185185        0.3736641605839415        0        
C3        C        0.0        0.203703        0.3736641605839415        0        
C4        C        0.03125        0.148148        0.3736641605839415        0        
C1        C        0.0        0.24074099999999998        0.3736641605839415        0        
C2        C        0.03125        0.296297        0.3736641605839415        0        
C3        C        0.0        0.314815        0.3736641605839415        0        
C4        C        0.03125        0.259259        0.3736641605839415        0        
C1        C        0.0        0.351852        0.3736641605839415        0        
C2        C        0.03125        0.407408        0.3736641605839415        0        
C3        C        0.0        0.425925        0.3736641605839415        0        
C4        C        0.03125        0.37037        0.3736641605839415        0        
C1        C        0.0        0.46296300000000007        0.3736641605839415        0        
C2        C        0.03125        0.518519        0.3736641605839415        0        
C3        C        0.0        0.537037        0.3736641605839415        0        
C4        C        0.03125        0.481481        0.3736641605839415        0        
C1        C        0.0        0.574075        0.3736641605839415        0        
C2        C        0.03125        0.62963        0.3736641605839415        0        
C3        C        0.0        0.648148        0.3736641605839415        0        
C4        C        0.03125        0.592592        0.3736641605839415        0        
C1        C        0.0625        0.018519        0.3736641605839415        0        
C2        C        0.09375        0.074075        0.3736641605839415        0        
C3        C        0.0625        0.092592        0.3736641605839415        0        
C4        C        0.09375        0.037037        0.3736641605839415        0        
C1        C        0.0625        0.12963        0.3736641605839415        0        
C2        C        0.09375        0.185185        0.3736641605839415        0        
C3        C        0.0625        0.203703        0.3736641605839415        0        
C4        C        0.09375        0.148148        0.3736641605839415        0        
C1        C        0.0625        0.24074099999999998        0.3736641605839415        0        
C2        C        0.09375        0.296297        0.3736641605839415        0        
C3        C        0.0625        0.314815        0.3736641605839415        0        
C4        C        0.09375        0.259259        0.3736641605839415        0        
C1        C        0.0625        0.351852        0.3736641605839415        0        
C2        C        0.09375        0.407408        0.3736641605839415        0        
C3        C        0.0625        0.425925        0.3736641605839415        0        
C4        C        0.09375        0.37037        0.3736641605839415        0        
C1        C        0.0625        0.46296300000000007        0.3736641605839415        0        
C2        C        0.09375        0.518519        0.3736641605839415        0        
C3        C        0.0625        0.537037        0.3736641605839415        0        
C4        C        0.09375        0.481481        0.3736641605839415        0        
C1        C        0.0625        0.574075        0.3736641605839415        0        
C2        C        0.09375        0.62963        0.3736641605839415        0        
C3        C        0.0625        0.648148        0.3736641605839415        0        
C4        C        0.09375        0.592592        0.3736641605839415        0        
C1        C        0.125        0.018519        0.3736641605839415        0        
C2        C        0.15625        0.074075        0.3736641605839415        0        
C3        C        0.125        0.092592        0.3736641605839415        0        
C4        C        0.15625        0.037037        0.3736641605839415        0        
C1        C        0.125        0.12963        0.3736641605839415        0        
C2        C        0.15625        0.185185        0.3736641605839415        0        
C3        C        0.125        0.203703        0.3736641605839415        0        
C4        C        0.15625        0.148148        0.3736641605839415        0        
C1        C        0.125        0.24074099999999998        0.3736641605839415        0        
C2        C        0.15625        0.296297        0.3736641605839415        0        
C3        C        0.125        0.314815        0.3736641605839415        0        
C4        C        0.15625        0.259259        0.3736641605839415        0        
C1        C        0.125        0.351852        0.3736641605839415        0        
C2        C        0.15625        0.407408        0.3736641605839415        0        
C3        C        0.125        0.425925        0.3736641605839415        0        
C4        C        0.15625        0.37037        0.3736641605839415        0        
C1        C        0.125        0.46296300000000007        0.3736641605839415        0        
C2        C        0.15625        0.518519        0.3736641605839415        0        
C3        C        0.125        0.537037        0.3736641605839415        0        
C4        C        0.15625        0.481481        0.3736641605839415        0        
C1        C        0.125        0.574075        0.3736641605839415        0        
C2        C        0.15625        0.62963        0.3736641605839415        0        
C3        C        0.125        0.648148        0.3736641605839415        0        
C4        C        0.15625        0.592592        0.3736641605839415        0        
C1        C        0.1875        0.018519        0.3736641605839415        0        
C2        C        0.21875        0.074075        0.3736641605839415        0        
C3        C        0.1875        0.092592        0.3736641605839415        0        
C4        C        0.21875        0.037037        0.3736641605839415        0        
C1        C        0.1875        0.12963        0.3736641605839415        0        
C2        C        0.21875        0.185185        0.3736641605839415        0        
C3        C        0.1875        0.203703        0.3736641605839415        0        
C4        C        0.21875        0.148148        0.3736641605839415        0        
C1        C        0.1875        0.24074099999999998        0.3736641605839415        0        
C2        C        0.21875        0.296297        0.3736641605839415        0        
C3        C        0.1875        0.314815        0.3736641605839415        0        
C4        C        0.21875        0.259259        0.3736641605839415        0        
C1        C        0.1875        0.351852        0.3736641605839415        0        
C2        C        0.21875        0.407408        0.3736641605839415        0        
C3        C        0.1875        0.425925        0.3736641605839415        0        
C4        C        0.21875        0.37037        0.3736641605839415        0        
C1        C        0.1875        0.46296300000000007        0.3736641605839415        0        
C2        C        0.21875        0.518519        0.3736641605839415        0        
C3        C        0.1875        0.537037        0.3736641605839415        0        
C4        C        0.21875        0.481481        0.3736641605839415        0        
C1        C        0.1875        0.574075        0.3736641605839415        0        
C2        C        0.21875        0.62963        0.3736641605839415        0        
C3        C        0.1875        0.648148        0.3736641605839415        0        
C4        C        0.21875        0.592592        0.3736641605839415        0        
C1        C        0.25        0.018519        0.3736641605839415        0        
C2        C        0.28125        0.074075        0.3736641605839415        0        
C3        C        0.25        0.092592        0.3736641605839415        0        
C4        C        0.28125        0.037037        0.3736641605839415        0        
C1        C        0.25        0.12963        0.3736641605839415        0        
C2        C        0.28125        0.185185        0.3736641605839415        0        
C3        C        0.25        0.203703        0.3736641605839415        0        
C4        C        0.28125        0.148148        0.3736641605839415        0        
C1        C        0.25        0.24074099999999998        0.3736641605839415        0        
C2        C        0.28125        0.296297        0.3736641605839415        0        
C3        C        0.25        0.314815        0.3736641605839415        0        
C4        C        0.28125        0.259259        0.3736641605839415        0        
C1        C        0.25        0.351852        0.3736641605839415        0        
C2        C        0.28125        0.407408        0.3736641605839415        0        
C3        C        0.25        0.425925        0.3736641605839415        0        
C4        C        0.28125        0.37037        0.3736641605839415        0        
C1        C        0.25        0.46296300000000007        0.3736641605839415        0        
C2        C        0.28125        0.518519        0.3736641605839415        0        
C3        C        0.25        0.537037        0.3736641605839415        0        
C4        C        0.28125        0.481481        0.3736641605839415        0        
C1        C        0.25        0.574075        0.3736641605839415        0        
C2        C        0.28125        0.62963        0.3736641605839415        0        
C3        C        0.25        0.648148        0.3736641605839415        0        
C4        C        0.28125        0.592592        0.3736641605839415        0        
C1        C        0.3125        0.018519        0.3736641605839415        0        
C2        C        0.34375        0.074075        0.3736641605839415        0        
C3        C        0.3125        0.092592        0.3736641605839415        0        
C4        C        0.34375        0.037037        0.3736641605839415        0        
C1        C        0.3125        0.12963        0.3736641605839415        0        
C2        C        0.34375        0.185185        0.3736641605839415        0        
C3        C        0.3125        0.203703        0.3736641605839415        0        
C4        C        0.34375        0.148148        0.3736641605839415        0        
C1        C        0.3125        0.24074099999999998        0.3736641605839415        0        
C2        C        0.34375        0.296297        0.3736641605839415        0        
C3        C        0.3125        0.314815        0.3736641605839415        0        
C4        C        0.34375        0.259259        0.3736641605839415        0        
C1        C        0.3125        0.351852        0.3736641605839415        0        
C2        C        0.34375        0.407408        0.3736641605839415        0        
C3        C        0.3125        0.425925        0.3736641605839415        0        
C4        C        0.34375        0.37037        0.3736641605839415        0        
C1        C        0.3125        0.46296300000000007        0.3736641605839415        0        
C2        C        0.34375        0.518519        0.3736641605839415        0        
C3        C        0.3125        0.537037        0.3736641605839415        0        
C4        C        0.34375        0.481481        0.3736641605839415        0        
C1        C        0.3125        0.574075        0.3736641605839415        0        
C2        C        0.34375        0.62963        0.3736641605839415        0        
C3        C        0.3125        0.648148        0.3736641605839415        0        
C4        C        0.34375        0.592592        0.3736641605839415        0        
C1        C        0.375        0.018519        0.3736641605839415        0        
C2        C        0.40625        0.074075        0.3736641605839415        0        
C3        C        0.375        0.092592        0.3736641605839415        0        
C4        C        0.40625        0.037037        0.3736641605839415        0        
C1        C        0.375        0.12963        0.3736641605839415        0        
C2        C        0.40625        0.185185        0.3736641605839415        0        
C3        C        0.375        0.203703        0.3736641605839415        0        
C4        C        0.40625        0.148148        0.3736641605839415        0        
C1        C        0.375        0.24074099999999998        0.3736641605839415        0        
C2        C        0.40625        0.296297        0.3736641605839415        0        
C3        C        0.375        0.314815        0.3736641605839415        0        
C4        C        0.40625        0.259259        0.3736641605839415        0        
C1        C        0.375        0.351852        0.3736641605839415        0        
C2        C        0.40625        0.407408        0.3736641605839415        0        
C3        C        0.375        0.425925        0.3736641605839415        0        
C4        C        0.40625        0.37037        0.3736641605839415        0        
C1        C        0.375        0.46296300000000007        0.3736641605839415        0        
C2        C        0.40625        0.518519        0.3736641605839415        0        
C3        C        0.375        0.537037        0.3736641605839415        0        
C4        C        0.40625        0.481481        0.3736641605839415        0        
C1        C        0.375        0.574075        0.3736641605839415        0        
C2        C        0.40625        0.62963        0.3736641605839415        0        
C3        C        0.375        0.648148        0.3736641605839415        0        
C4        C        0.40625        0.592592        0.3736641605839415        0        
C1        C        0.4375        0.018519        0.3736641605839415        0        
C2        C        0.46875        0.074075        0.3736641605839415        0        
C3        C        0.4375        0.092592        0.3736641605839415        0        
C4        C        0.46875        0.037037        0.3736641605839415        0        
C1        C        0.4375        0.12963        0.3736641605839415        0        
C2        C        0.46875        0.185185        0.3736641605839415        0        
C3        C        0.4375        0.203703        0.3736641605839415        0        
C4        C        0.46875        0.148148        0.3736641605839415        0        
C1        C        0.4375        0.24074099999999998        0.3736641605839415        0        
C2        C        0.46875        0.296297        0.3736641605839415        0        
C3        C        0.4375        0.314815        0.3736641605839415        0        
C4        C        0.46875        0.259259        0.3736641605839415        0        
C1        C        0.4375        0.351852        0.3736641605839415        0        
C2        C        0.46875        0.407408        0.3736641605839415        0        
C3        C        0.4375        0.425925        0.3736641605839415        0        
C4        C        0.46875        0.37037        0.3736641605839415        0        
C1        C        0.4375        0.46296300000000007        0.3736641605839415        0        
C2        C        0.46875        0.518519        0.3736641605839415        0        
C3        C        0.4375        0.537037        0.3736641605839415        0        
C4        C        0.46875        0.481481        0.3736641605839415        0        
C1        C        0.4375        0.574075        0.3736641605839415        0        
C2        C        0.46875        0.62963        0.3736641605839415        0        
C3        C        0.4375        0.648148        0.3736641605839415        0        
C4        C        0.46875        0.592592        0.3736641605839415        0        
C1        C        0.5        0.018519        0.3736641605839415        0        
C2        C        0.53125        0.074075        0.3736641605839415        0        
C3        C        0.5        0.092592        0.3736641605839415        0        
C4        C        0.53125        0.037037        0.3736641605839415        0        
C1        C        0.5        0.12963        0.3736641605839415        0        
C2        C        0.53125        0.185185        0.3736641605839415        0        
C3        C        0.5        0.203703        0.3736641605839415        0        
C4        C        0.53125        0.148148        0.3736641605839415        0        
C1        C        0.5        0.24074099999999998        0.3736641605839415        0        
C2        C        0.53125        0.296297        0.3736641605839415        0        
C3        C        0.5        0.314815        0.3736641605839415        0        
C4        C        0.53125        0.259259        0.3736641605839415        0        
C1        C        0.5        0.351852        0.3736641605839415        0        
C2        C        0.53125        0.407408        0.3736641605839415        0        
C3        C        0.5        0.425925        0.3736641605839415        0        
C4        C        0.53125        0.37037        0.3736641605839415        0        
C1        C        0.5        0.46296300000000007        0.3736641605839415        0        
C2        C        0.53125        0.518519        0.3736641605839415        0        
C3        C        0.5        0.537037        0.3736641605839415        0        
C4        C        0.53125        0.481481        0.3736641605839415        0        
C1        C        0.5        0.574075        0.3736641605839415        0        
C2        C        0.53125        0.62963        0.3736641605839415        0        
C3        C        0.5        0.648148        0.3736641605839415        0        
C4        C        0.53125        0.592592        0.3736641605839415        0        
C1        C        0.5625        0.018519        0.3736641605839415        0        
C2        C        0.59375        0.074075        0.3736641605839415        0        
C3        C        0.5625        0.092592        0.3736641605839415        0        
C4        C        0.59375        0.037037        0.3736641605839415        0        
C1        C        0.5625        0.12963        0.3736641605839415        0        
C2        C        0.59375        0.185185        0.3736641605839415        0        
C3        C        0.5625        0.203703        0.3736641605839415        0        
C4        C        0.59375        0.148148        0.3736641605839415        0        
C1        C        0.5625        0.24074099999999998        0.3736641605839415        0        
C2        C        0.59375        0.296297        0.3736641605839415        0        
C3        C        0.5625        0.314815        0.3736641605839415        0        
C4        C        0.59375        0.259259        0.3736641605839415        0        
C1        C        0.5625        0.351852        0.3736641605839415        0        
C2        C        0.59375        0.407408        0.3736641605839415        0        
C3        C        0.5625        0.425925        0.3736641605839415        0        
C4        C        0.59375        0.37037        0.3736641605839415        0        
C1        C        0.5625        0.46296300000000007        0.3736641605839415        0        
C2        C        0.59375        0.518519        0.3736641605839415        0        
C3        C        0.5625        0.537037        0.3736641605839415        0        
C4        C        0.59375        0.481481        0.3736641605839415        0        
C1        C        0.5625        0.574075        0.3736641605839415        0        
C2        C        0.59375        0.62963        0.3736641605839415        0        
C3        C        0.5625        0.648148        0.3736641605839415        0        
C4        C        0.59375        0.592592        0.3736641605839415        0        
C1        C        0.625        0.018519        0.3736641605839415        0        
C2        C        0.65625        0.074075        0.3736641605839415        0        
C3        C        0.625        0.092592        0.3736641605839415        0        
C4        C        0.65625        0.037037        0.3736641605839415        0        
C1        C        0.625        0.12963        0.3736641605839415        0        
C2        C        0.65625        0.185185        0.3736641605839415        0        
C3        C        0.625        0.203703        0.3736641605839415        0        
C4        C        0.65625        0.148148        0.3736641605839415        0        
C1        C        0.625        0.24074099999999998        0.3736641605839415        0        
C2        C        0.65625        0.296297        0.3736641605839415        0        
C3        C        0.625        0.314815        0.3736641605839415        0        
C4        C        0.65625        0.259259        0.3736641605839415        0        
C1        C        0.625        0.351852        0.3736641605839415        0        
C2        C        0.65625        0.407408        0.3736641605839415        0        
C3        C        0.625        0.425925        0.3736641605839415        0        
C4        C        0.65625        0.37037        0.3736641605839415        0        
C1        C        0.625        0.46296300000000007        0.3736641605839415        0        
C2        C        0.65625        0.518519        0.3736641605839415        0        
C3        C        0.625        0.537037        0.3736641605839415        0        
C4        C        0.65625        0.481481        0.3736641605839415        0        
C1        C        0.625        0.574075        0.3736641605839415        0        
C2        C        0.65625        0.62963        0.3736641605839415        0        
C3        C        0.625        0.648148        0.3736641605839415        0        
C4        C        0.65625        0.592592        0.3736641605839415        0        
C1        C        0.6875        0.018519        0.3736641605839415        0        
C2        C        0.71875        0.074075        0.3736641605839415        0        
C3        C        0.6875        0.092592        0.3736641605839415        0        
C4        C        0.71875        0.037037        0.3736641605839415        0        
C1        C        0.6875        0.12963        0.3736641605839415        0        
C2        C        0.71875        0.185185        0.3736641605839415        0        
C3        C        0.6875        0.203703        0.3736641605839415        0        
C4        C        0.71875        0.148148        0.3736641605839415        0        
C1        C        0.6875        0.24074099999999998        0.3736641605839415        0        
C2        C        0.71875        0.296297        0.3736641605839415        0        
C3        C        0.6875        0.314815        0.3736641605839415        0        
C4        C        0.71875        0.259259        0.3736641605839415        0        
C1        C        0.6875        0.351852        0.3736641605839415        0        
C2        C        0.71875        0.407408        0.3736641605839415        0        
C3        C        0.6875        0.425925        0.3736641605839415        0        
C4        C        0.71875        0.37037        0.3736641605839415        0        
C1        C        0.6875        0.46296300000000007        0.3736641605839415        0        
C2        C        0.71875        0.518519        0.3736641605839415        0        
C3        C        0.6875        0.537037        0.3736641605839415        0        
C4        C        0.71875        0.481481        0.3736641605839415        0        
C1        C        0.6875        0.574075        0.3736641605839415        0        
C2        C        0.71875        0.62963        0.3736641605839415        0        
C3        C        0.6875        0.648148        0.3736641605839415        0        
C4        C        0.71875        0.592592        0.3736641605839415        0        
C1        C        0.75        0.018519        0.3736641605839415        0        
C2        C        0.78125        0.074075        0.3736641605839415        0        
C3        C        0.75        0.092592        0.3736641605839415        0        
C4        C        0.78125        0.037037        0.3736641605839415        0        
C1        C        0.75        0.12963        0.3736641605839415        0        
C2        C        0.78125        0.185185        0.3736641605839415        0        
C3        C        0.75        0.203703        0.3736641605839415        0        
C4        C        0.78125        0.148148        0.3736641605839415        0        
C1        C        0.75        0.24074099999999998        0.3736641605839415        0        
C2        C        0.78125        0.296297        0.3736641605839415        0        
C3        C        0.75        0.314815        0.3736641605839415        0        
C4        C        0.78125        0.259259        0.3736641605839415        0        
C1        C        0.75        0.351852        0.3736641605839415        0        
C2        C        0.78125        0.407408        0.3736641605839415        0        
C3        C        0.75        0.425925        0.3736641605839415        0        
C4        C        0.78125        0.37037        0.3736641605839415        0        
C1        C        0.75        0.46296300000000007        0.3736641605839415        0        
C2        C        0.78125        0.518519        0.3736641605839415        0        
C3        C        0.75        0.537037        0.3736641605839415        0        
C4        C        0.78125        0.481481        0.3736641605839415        0        
C1        C        0.75        0.574075        0.3736641605839415        0        
C2        C        0.78125        0.62963        0.3736641605839415        0        
C3        C        0.75        0.648148        0.3736641605839415        0        
C4        C        0.78125        0.592592        0.3736641605839415        0        
C1        C        0.8125        0.018519        0.3736641605839415        0        
C2        C        0.84375        0.074075        0.3736641605839415        0        
C3        C        0.8125        0.092592        0.3736641605839415        0        
C4        C        0.84375        0.037037        0.3736641605839415        0        
C1        C        0.8125        0.12963        0.3736641605839415        0        
C2        C        0.84375        0.185185        0.3736641605839415        0        
C3        C        0.8125        0.203703        0.3736641605839415        0        
C4        C        0.84375        0.148148        0.3736641605839415        0        
C1        C        0.8125        0.24074099999999998        0.3736641605839415        0        
C2        C        0.84375        0.296297        0.3736641605839415        0        
C3        C        0.8125        0.314815        0.3736641605839415        0        
C4        C        0.84375        0.259259        0.3736641605839415        0        
C1        C        0.8125        0.351852        0.3736641605839415        0        
C2        C        0.84375        0.407408        0.3736641605839415        0        
C3        C        0.8125        0.425925        0.3736641605839415        0        
C4        C        0.84375        0.37037        0.3736641605839415        0        
C1        C        0.8125        0.46296300000000007        0.3736641605839415        0        
C2        C        0.84375        0.518519        0.3736641605839415        0        
C3        C        0.8125        0.537037        0.3736641605839415        0        
C4        C        0.84375        0.481481        0.3736641605839415        0        
C1        C        0.8125        0.574075        0.3736641605839415        0        
C2        C        0.84375        0.62963        0.3736641605839415        0        
C3        C        0.8125        0.648148        0.3736641605839415        0        
C4        C        0.84375        0.592592        0.3736641605839415        0        
C1        C        0.875        0.018519        0.3736641605839415        0        
C2        C        0.9062500000000001        0.074075        0.3736641605839415        0        
C3        C        0.875        0.092592        0.3736641605839415        0        
C4        C        0.9062500000000001        0.037037        0.3736641605839415        0        
C1        C        0.875        0.12963        0.3736641605839415        0        
C2        C        0.9062500000000001        0.185185        0.3736641605839415        0        
C3        C        0.875        0.203703        0.3736641605839415        0        
C4        C        0.9062500000000001        0.148148        0.3736641605839415        0        
C1        C        0.875        0.24074099999999998        0.3736641605839415        0        
C2        C        0.9062500000000001        0.296297        0.3736641605839415        0        
C3        C        0.875        0.314815        0.3736641605839415        0        
C4        C        0.9062500000000001        0.259259        0.3736641605839415        0        
C1        C        0.875        0.351852        0.3736641605839415        0        
C2        C        0.9062500000000001        0.407408        0.3736641605839415        0        
C3        C        0.875        0.425925        0.3736641605839415        0        
C4        C        0.9062500000000001        0.37037        0.3736641605839415        0        
C1        C        0.875        0.46296300000000007        0.3736641605839415        0        
C2        C        0.9062500000000001        0.518519        0.3736641605839415        0        
C3        C        0.875        0.537037        0.3736641605839415        0        
C4        C        0.9062500000000001        0.481481        0.3736641605839415        0        
C1        C        0.875        0.574075        0.3736641605839415        0        
C2        C        0.9062500000000001        0.62963        0.3736641605839415        0        
C3        C        0.875        0.648148        0.3736641605839415        0        
C4        C        0.9062500000000001        0.592592        0.3736641605839415        0        
C1        C        0.9375        0.018519        0.3736641605839415        0        
C2        C        0.9687500000000001        0.074075        0.3736641605839415        0        
C3        C        0.9375        0.092592        0.3736641605839415        0        
C4        C        0.9687500000000001        0.037037        0.3736641605839415        0        
C1        C        0.9375        0.12963        0.3736641605839415        0        
C2        C        0.9687500000000001        0.185185        0.3736641605839415        0        
C3        C        0.9375        0.203703        0.3736641605839415        0        
C4        C        0.9687500000000001        0.148148        0.3736641605839415        0        
C1        C        0.9375        0.24074099999999998        0.3736641605839415        0        
C2        C        0.9687500000000001        0.296297        0.3736641605839415        0        
C3        C        0.9375        0.314815        0.3736641605839415        0        
C4        C        0.9687500000000001        0.259259        0.3736641605839415        0        
C1        C        0.9375        0.351852        0.3736641605839415        0        
C2        C        0.9687500000000001        0.407408        0.3736641605839415        0        
C3        C        0.9375        0.425925        0.3736641605839415        0        
C4        C        0.9687500000000001        0.37037        0.3736641605839415        0        
C1        C        0.9375        0.46296300000000007        0.3736641605839415        0        
C2        C        0.9687500000000001        0.518519        0.3736641605839415        0        
C3        C        0.9375        0.537037        0.3736641605839415        0        
C4        C        0.9687500000000001        0.481481        0.3736641605839415        0        
C1        C        0.9375        0.574075        0.3736641605839415        0        
C2        C        0.9687500000000001        0.62963        0.3736641605839415        0        
C3        C        0.9375        0.648148        0.3736641605839415        0        
C4        C        0.9687500000000001        0.592592        0.3736641605839415        0        
C1        C        0.0        0.685186        0.3736641605839415        0        
C1        C        0.0625        0.685186        0.3736641605839415        0        
C1        C        0.125        0.685186        0.3736641605839415        0        
C1        C        0.1875        0.685186        0.3736641605839415        0        
C1        C        0.25        0.685186        0.3736641605839415        0        
C1        C        0.3125        0.685186        0.3736641605839415        0        
C1        C        0.375        0.685186        0.3736641605839415        0        
C1        C        0.4375        0.685186        0.3736641605839415        0        
C1        C        0.5        0.685186        0.3736641605839415        0        
C1        C        0.5625        0.685186        0.3736641605839415        0        
C1        C        0.625        0.685186        0.3736641605839415        0        
C1        C        0.6875        0.685186        0.3736641605839415        0        
C1        C        0.75        0.685186        0.3736641605839415        0        
C1        C        0.8125        0.685186        0.3736641605839415        0        
C1        C        0.875        0.685186        0.3736641605839415        0        
C1        C        0.9375        0.685186        0.3736641605839415        0        
C2        C        0.03125        0.740741        0.3736641605839415        0        
C2        C        0.09375        0.740741        0.3736641605839415        0        
C2        C        0.15625        0.740741        0.3736641605839415        0        
C2        C        0.21875        0.740741        0.3736641605839415        0        
C2        C        0.28125        0.740741        0.3736641605839415        0        
C2        C        0.34375        0.740741        0.3736641605839415        0        
C2        C        0.40625        0.740741        0.3736641605839415        0        
C2        C        0.46875        0.740741        0.3736641605839415        0        
C2        C        0.53125        0.740741        0.3736641605839415        0        
C2        C        0.59375        0.740741        0.3736641605839415        0        
C2        C        0.65625        0.740741        0.3736641605839415        0        
C2        C        0.71875        0.740741        0.3736641605839415        0        
C2        C        0.78125        0.740741        0.3736641605839415        0        
C2        C        0.84375        0.740741        0.3736641605839415        0        
C2        C        0.9062500000000001        0.740741        0.3736641605839415        0        
C2        C        0.9687500000000001        0.740741        0.3736641605839415        0        
C3        C        0.0        0.759259        0.3736641605839415        0        
C3        C        0.0625        0.759259        0.3736641605839415        0        
C3        C        0.125        0.759259        0.3736641605839415        0        
C3        C        0.1875        0.759259        0.3736641605839415        0        
C3        C        0.25        0.759259        0.3736641605839415        0        
C3        C        0.3125        0.759259        0.3736641605839415        0        
C3        C        0.375        0.759259        0.3736641605839415        0        
C3        C        0.4375        0.759259        0.3736641605839415        0        
C3        C        0.5        0.759259        0.3736641605839415        0        
C3        C        0.5625        0.759259        0.3736641605839415        0        
C3        C        0.625        0.759259        0.3736641605839415        0        
C3        C        0.6875        0.759259        0.3736641605839415        0        
C3        C        0.75        0.759259        0.3736641605839415        0        
C3        C        0.8125        0.759259        0.3736641605839415        0        
C3        C        0.875        0.759259        0.3736641605839415        0        
C3        C        0.9375        0.759259        0.3736641605839415        0        
C4        C        0.03125        0.703703        0.3736641605839415        0        
C4        C        0.09375        0.703703        0.3736641605839415        0        
C4        C        0.15625        0.703703        0.3736641605839415        0        
C4        C        0.21875        0.703703        0.3736641605839415        0        
C4        C        0.28125        0.703703        0.3736641605839415        0        
C4        C        0.34375        0.703703        0.3736641605839415        0        
C4        C        0.40625        0.703703        0.3736641605839415        0        
C4        C        0.46875        0.703703        0.3736641605839415        0        
C4        C        0.53125        0.703703        0.3736641605839415        0        
C4        C        0.59375        0.703703        0.3736641605839415        0        
C4        C        0.65625        0.703703        0.3736641605839415        0        
C4        C        0.71875        0.703703        0.3736641605839415        0        
C4        C        0.78125        0.703703        0.3736641605839415        0        
C4        C        0.84375        0.703703        0.3736641605839415        0        
C4        C        0.9062500000000001        0.703703        0.3736641605839415        0        
C4        C        0.9687500000000001        0.703703        0.3736641605839415        0        
C1        C        0.0        0.796297        0.3736641605839415        0        
C1        C        0.0625        0.796297        0.3736641605839415        0        
C1        C        0.125        0.796297        0.3736641605839415        0        
C1        C        0.1875        0.796297        0.3736641605839415        0        
C1        C        0.25        0.796297        0.3736641605839415        0        
C1        C        0.3125        0.796297        0.3736641605839415        0        
C1        C        0.375        0.796297        0.3736641605839415        0        
C1        C        0.4375        0.796297        0.3736641605839415        0        
C1        C        0.5        0.796297        0.3736641605839415        0        
C1        C        0.5625        0.796297        0.3736641605839415        0        
C1        C        0.625        0.796297        0.3736641605839415        0        
C1        C        0.6875        0.796297        0.3736641605839415        0        
C1        C        0.75        0.796297        0.3736641605839415        0        
C1        C        0.8125        0.796297        0.3736641605839415        0        
C1        C        0.875        0.796297        0.3736641605839415        0        
C1        C        0.9375        0.796297        0.3736641605839415        0        
C2        C        0.03125        0.851852        0.3736641605839415        0        
C2        C        0.09375        0.851852        0.3736641605839415        0        
C2        C        0.15625        0.851852        0.3736641605839415        0        
C2        C        0.21875        0.851852        0.3736641605839415        0        
C2        C        0.28125        0.851852        0.3736641605839415        0        
C2        C        0.34375        0.851852        0.3736641605839415        0        
C2        C        0.40625        0.851852        0.3736641605839415        0        
C2        C        0.46875        0.851852        0.3736641605839415        0        
C2        C        0.53125        0.851852        0.3736641605839415        0        
C2        C        0.59375        0.851852        0.3736641605839415        0        
C2        C        0.65625        0.851852        0.3736641605839415        0        
C2        C        0.71875        0.851852        0.3736641605839415        0        
C2        C        0.78125        0.851852        0.3736641605839415        0        
C2        C        0.84375        0.851852        0.3736641605839415        0        
C2        C        0.9062500000000001        0.851852        0.3736641605839415        0        
C2        C        0.9687500000000001        0.851852        0.3736641605839415        0        
C3        C        0.0        0.87037        0.3736641605839415        0        
C3        C        0.0625        0.87037        0.3736641605839415        0        
C3        C        0.125        0.87037        0.3736641605839415        0        
C3        C        0.1875        0.87037        0.3736641605839415        0        
C3        C        0.25        0.87037        0.3736641605839415        0        
C3        C        0.3125        0.87037        0.3736641605839415        0        
C3        C        0.375        0.87037        0.3736641605839415        0        
C3        C        0.4375        0.87037        0.3736641605839415        0        
C3        C        0.5        0.87037        0.3736641605839415        0        
C3        C        0.5625        0.87037        0.3736641605839415        0        
C3        C        0.625        0.87037        0.3736641605839415        0        
C3        C        0.6875        0.87037        0.3736641605839415        0        
C3        C        0.75        0.87037        0.3736641605839415        0        
C3        C        0.8125        0.87037        0.3736641605839415        0        
C3        C        0.875        0.87037        0.3736641605839415        0        
C3        C        0.9375        0.87037        0.3736641605839415        0        
C4        C        0.03125        0.814814        0.3736641605839415        0        
C4        C        0.09375        0.814814        0.3736641605839415        0        
C4        C        0.15625        0.814814        0.3736641605839415        0        
C4        C        0.21875        0.814814        0.3736641605839415        0        
C4        C        0.28125        0.814814        0.3736641605839415        0        
C4        C        0.34375        0.814814        0.3736641605839415        0        
C4        C        0.40625        0.814814        0.3736641605839415        0        
C4        C        0.46875        0.814814        0.3736641605839415        0        
C4        C        0.53125        0.814814        0.3736641605839415        0        
C4        C        0.59375        0.814814        0.3736641605839415        0        
C4        C        0.65625        0.814814        0.3736641605839415        0        
C4        C        0.71875        0.814814        0.3736641605839415        0        
C4        C        0.78125        0.814814        0.3736641605839415        0        
C4        C        0.84375        0.814814        0.3736641605839415        0        
C4        C        0.9062500000000001        0.814814        0.3736641605839415        0        
C4        C        0.9687500000000001        0.814814        0.3736641605839415        0        
C1        C        0.0        0.907408        0.3736641605839415        0        
C1        C        0.0625        0.907408        0.3736641605839415        0        
C1        C        0.125        0.907408        0.3736641605839415        0        
C1        C        0.1875        0.907408        0.3736641605839415        0        
C1        C        0.25        0.907408        0.3736641605839415        0        
C1        C        0.3125        0.907408        0.3736641605839415        0        
C1        C        0.375        0.907408        0.3736641605839415        0        
C1        C        0.4375        0.907408        0.3736641605839415        0        
C1        C        0.5        0.907408        0.3736641605839415        0        
C1        C        0.5625        0.907408        0.3736641605839415        0        
C1        C        0.625        0.907408        0.3736641605839415        0        
C1        C        0.6875        0.907408        0.3736641605839415        0        
C1        C        0.75        0.907408        0.3736641605839415        0        
C1        C        0.8125        0.907408        0.3736641605839415        0        
C1        C        0.875        0.907408        0.3736641605839415        0        
C1        C        0.9375        0.907408        0.3736641605839415        0        
C2        C        0.03125        0.962963        0.3736641605839415        0        
C2        C        0.09375        0.962963        0.3736641605839415        0        
C2        C        0.15625        0.962963        0.3736641605839415        0        
C2        C        0.21875        0.962963        0.3736641605839415        0        
C2        C        0.28125        0.962963        0.3736641605839415        0        
C2        C        0.34375        0.962963        0.3736641605839415        0        
C2        C        0.40625        0.962963        0.3736641605839415        0        
C2        C        0.46875        0.962963        0.3736641605839415        0        
C2        C        0.53125        0.962963        0.3736641605839415        0        
C2        C        0.59375        0.962963        0.3736641605839415        0        
C2        C        0.65625        0.962963        0.3736641605839415        0        
C2        C        0.71875        0.962963        0.3736641605839415        0        
C2        C        0.78125        0.962963        0.3736641605839415        0        
C2        C        0.84375        0.962963        0.3736641605839415        0        
C2        C        0.9062500000000001        0.962963        0.3736641605839415        0        
C2        C        0.9687500000000001        0.962963        0.3736641605839415        0        
C3        C        0.0        0.9814809999999999        0.3736641605839415        0        
C3        C        0.0625        0.9814809999999999        0.3736641605839415        0        
C3        C        0.125        0.9814809999999999        0.3736641605839415        0        
C3        C        0.1875        0.9814809999999999        0.3736641605839415        0        
C3        C        0.25        0.9814809999999999        0.3736641605839415        0        
C3        C        0.3125        0.9814809999999999        0.3736641605839415        0        
C3        C        0.375        0.9814809999999999        0.3736641605839415        0        
C3        C        0.4375        0.9814809999999999        0.3736641605839415        0        
C3        C        0.5        0.9814809999999999        0.3736641605839415        0        
C3        C        0.5625        0.9814809999999999        0.3736641605839415        0        
C3        C        0.625        0.9814809999999999        0.3736641605839415        0        
C3        C        0.6875        0.9814809999999999        0.3736641605839415        0        
C3        C        0.75        0.9814809999999999        0.3736641605839415        0        
C3        C        0.8125        0.9814809999999999        0.3736641605839415        0        
C3        C        0.875        0.9814809999999999        0.3736641605839415        0        
C3        C        0.9375        0.9814809999999999        0.3736641605839415        0        
C4        C        0.03125        0.925925        0.3736641605839415        0        
C4        C        0.09375        0.925925        0.3736641605839415        0        
C4        C        0.15625        0.925925        0.3736641605839415        0        
C4        C        0.21875        0.925925        0.3736641605839415        0        
C4        C        0.28125        0.925925        0.3736641605839415        0        
C4        C        0.34375        0.925925        0.3736641605839415        0        
C4        C        0.40625        0.925925        0.3736641605839415        0        
C4        C        0.46875        0.925925        0.3736641605839415        0        
C4        C        0.53125        0.925925        0.3736641605839415        0        
C4        C        0.59375        0.925925        0.3736641605839415        0        
C4        C        0.65625        0.925925        0.3736641605839415        0        
C4        C        0.71875        0.925925        0.3736641605839415        0        
C4        C        0.78125        0.925925        0.3736641605839415        0        
C4        C        0.84375        0.925925        0.3736641605839415        0        
C4        C        0.9062500000000001        0.925925        0.3736641605839415        0        
C4        C        0.9687500000000001        0.925925        0.3736641605839415        0        
C_FG        C        0.0        0.018519        0.618189708029197        0.2        
C2        C        0.03125        0.074075        0.618189708029197        0        
C_FG        C        0.0        0.092592        0.618189708029197        0.2        
C4        C        0.03125        0.037037        0.618189708029197        0        
C_FG        C        0.0        0.12963        0.618189708029197        0.2        
C2        C        0.03125        0.185185        0.618189708029197        0        
C_FG        C        0.0        0.203703        0.618189708029197        0.2        
C4        C        0.03125        0.148148        0.618189708029197        0        
C_FG        C        0.0        0.24074099999999998        0.618189708029197        0.2        
C2        C        0.03125        0.296297        0.618189708029197        0        
C_FG        C        0.0        0.314815        0.618189708029197        0.2        
C4        C        0.03125        0.259259        0.618189708029197        0        
C_FG        C        0.0        0.351852        0.618189708029197        0.2        
C2        C        0.03125        0.407408        0.618189708029197        0        
C_FG        C        0.0        0.425925        0.618189708029197        0.2        
C4        C        0.03125        0.37037        0.618189708029197        0        
C_FG        C        0.0        0.46296300000000007        0.618189708029197        0.2        
C2        C        0.03125        0.518519        0.618189708029197        0        
C_FG        C        0.0        0.537037        0.618189708029197        0.2        
C4        C        0.03125        0.481481        0.618189708029197        0        
C_FG        C        0.0        0.574075        0.618189708029197        0.2        
C2        C        0.03125        0.62963        0.618189708029197        0        
C_FG        C        0.0        0.648148        0.618189708029197        0.2        
C4        C        0.03125        0.592592        0.618189708029197        0        
C1        C        0.0625        0.018519        0.618189708029197        0        
C2        C        0.09375        0.074075        0.618189708029197        0        
C3        C        0.0625        0.092592        0.618189708029197        0        
C4        C        0.09375        0.037037        0.618189708029197        0        
C1        C        0.0625        0.12963        0.618189708029197        0        
C2        C        0.09375        0.185185        0.618189708029197        0        
C3        C        0.0625        0.203703        0.618189708029197        0        
C4        C        0.09375        0.148148        0.618189708029197        0        
C1        C        0.0625        0.24074099999999998        0.618189708029197        0        
C2        C        0.09375        0.296297        0.618189708029197        0        
C3        C        0.0625        0.314815        0.618189708029197        0        
C4        C        0.09375        0.259259        0.618189708029197        0        
C1        C        0.0625        0.351852        0.618189708029197        0        
C2        C        0.09375        0.407408        0.618189708029197        0        
C3        C        0.0625        0.425925        0.618189708029197        0        
C4        C        0.09375        0.37037        0.618189708029197        0        
C1        C        0.0625        0.46296300000000007        0.618189708029197        0        
C2        C        0.09375        0.518519        0.618189708029197        0        
C3        C        0.0625        0.537037        0.618189708029197        0        
C4        C        0.09375        0.481481        0.618189708029197        0        
C1        C        0.0625        0.574075        0.618189708029197        0        
C2        C        0.09375        0.62963        0.618189708029197        0        
C3        C        0.0625        0.648148        0.618189708029197        0        
C4        C        0.09375        0.592592        0.618189708029197        0        
C_FG        C        0.125        0.018519        0.618189708029197        0.2        
C2        C        0.15625        0.074075        0.618189708029197        0        
C_FG        C        0.125        0.092592        0.618189708029197        0.2        
C4        C        0.15625        0.037037        0.618189708029197        0        
C_FG        C        0.125        0.12963        0.618189708029197        0.2        
C2        C        0.15625        0.185185        0.618189708029197        0        
C_FG        C        0.125        0.203703        0.618189708029197        0.2        
C4        C        0.15625        0.148148        0.618189708029197        0        
C_FG        C        0.125        0.24074099999999998        0.618189708029197        0.2        
C2        C        0.15625        0.296297        0.618189708029197        0        
C_FG        C        0.125        0.314815        0.618189708029197        0.2        
C4        C        0.15625        0.259259        0.618189708029197        0        
C_FG        C        0.125        0.351852        0.618189708029197        0.2        
C2        C        0.15625        0.407408        0.618189708029197        0        
C_FG        C        0.125        0.425925        0.618189708029197        0.2        
C4        C        0.15625        0.37037        0.618189708029197        0        
C_FG        C        0.125        0.46296300000000007        0.618189708029197        0.2        
C2        C        0.15625        0.518519        0.618189708029197        0        
C_FG        C        0.125        0.537037        0.618189708029197        0.2        
C4        C        0.15625        0.481481        0.618189708029197        0        
C_FG        C        0.125        0.574075        0.618189708029197        0.2        
C2        C        0.15625        0.62963        0.618189708029197        0        
C_FG        C        0.125        0.648148        0.618189708029197        0.2        
C4        C        0.15625        0.592592        0.618189708029197        0        
C1        C        0.1875        0.018519        0.618189708029197        0        
C2        C        0.21875        0.074075        0.618189708029197        0        
C3        C        0.1875        0.092592        0.618189708029197        0        
C4        C        0.21875        0.037037        0.618189708029197        0        
C1        C        0.1875        0.12963        0.618189708029197        0        
C2        C        0.21875        0.185185        0.618189708029197        0        
C3        C        0.1875        0.203703        0.618189708029197        0        
C4        C        0.21875        0.148148        0.618189708029197        0        
C1        C        0.1875        0.24074099999999998        0.618189708029197        0        
C2        C        0.21875        0.296297        0.618189708029197        0        
C3        C        0.1875        0.314815        0.618189708029197        0        
C4        C        0.21875        0.259259        0.618189708029197        0        
C1        C        0.1875        0.351852        0.618189708029197        0        
C2        C        0.21875        0.407408        0.618189708029197        0        
C3        C        0.1875        0.425925        0.618189708029197        0        
C4        C        0.21875        0.37037        0.618189708029197        0        
C1        C        0.1875        0.46296300000000007        0.618189708029197        0        
C2        C        0.21875        0.518519        0.618189708029197        0        
C3        C        0.1875        0.537037        0.618189708029197        0        
C4        C        0.21875        0.481481        0.618189708029197        0        
C1        C        0.1875        0.574075        0.618189708029197        0        
C2        C        0.21875        0.62963        0.618189708029197        0        
C3        C        0.1875        0.648148        0.618189708029197        0        
C4        C        0.21875        0.592592        0.618189708029197        0        
C1        C        0.25        0.018519        0.618189708029197        0        
C_FG        C        0.28125        0.074075        0.618189708029197        0.2        
C3        C        0.25        0.092592        0.618189708029197        0        
C_FG        C        0.28125        0.037037        0.618189708029197        0.2        
C1        C        0.25        0.12963        0.618189708029197        0        
C_FG        C        0.28125        0.185185        0.618189708029197        0.2        
C3        C        0.25        0.203703        0.618189708029197        0        
C_FG        C        0.28125        0.148148        0.618189708029197        0.2        
C1        C        0.25        0.24074099999999998        0.618189708029197        0        
C_FG        C        0.28125        0.296297        0.618189708029197        0.2        
C3        C        0.25        0.314815        0.618189708029197        0        
C_FG        C        0.28125        0.259259        0.618189708029197        0.2        
C1        C        0.25        0.351852        0.618189708029197        0        
C_FG        C        0.28125        0.407408        0.618189708029197        0.2        
C3        C        0.25        0.425925        0.618189708029197        0        
C_FG        C        0.28125        0.37037        0.618189708029197        0.2        
C1        C        0.25        0.46296300000000007        0.618189708029197        0        
C_FG        C        0.28125        0.518519        0.618189708029197        0.2        
C3        C        0.25        0.537037        0.618189708029197        0        
C_FG        C        0.28125        0.481481        0.618189708029197        0.2        
C1        C        0.25        0.574075        0.618189708029197        0        
C_FG        C        0.28125        0.62963        0.618189708029197        0.2        
C3        C        0.25        0.648148        0.618189708029197        0        
C_FG        C        0.28125        0.592592        0.618189708029197        0.2        
C1        C        0.3125        0.018519        0.618189708029197        0        
C2        C        0.34375        0.074075        0.618189708029197        0        
C3        C        0.3125        0.092592        0.618189708029197        0        
C4        C        0.34375        0.037037        0.618189708029197        0        
C1        C        0.3125        0.12963        0.618189708029197        0        
C2        C        0.34375        0.185185        0.618189708029197        0        
C3        C        0.3125        0.203703        0.618189708029197        0        
C4        C        0.34375        0.148148        0.618189708029197        0        
C1        C        0.3125        0.24074099999999998        0.618189708029197        0        
C2        C        0.34375        0.296297        0.618189708029197        0        
C3        C        0.3125        0.314815        0.618189708029197        0        
C4        C        0.34375        0.259259        0.618189708029197        0        
C1        C        0.3125        0.351852        0.618189708029197        0        
C2        C        0.34375        0.407408        0.618189708029197        0        
C3        C        0.3125        0.425925        0.618189708029197        0        
C4        C        0.34375        0.37037        0.618189708029197        0        
C1        C        0.3125        0.46296300000000007        0.618189708029197        0        
C2        C        0.34375        0.518519        0.618189708029197        0        
C3        C        0.3125        0.537037        0.618189708029197        0        
C4        C        0.34375        0.481481        0.618189708029197        0        
C1        C        0.3125        0.574075        0.618189708029197        0        
C2        C        0.34375        0.62963        0.618189708029197        0        
C3        C        0.3125        0.648148        0.618189708029197        0        
C4        C        0.34375        0.592592        0.618189708029197        0        
C_FG        C        0.375        0.018519        0.618189708029197        0.2        
C2        C        0.40625        0.074075        0.618189708029197        0        
C_FG        C        0.375        0.092592        0.618189708029197        0.2        
C4        C        0.40625        0.037037        0.618189708029197        0        
C_FG        C        0.375        0.12963        0.618189708029197        0.2        
C2        C        0.40625        0.185185        0.618189708029197        0        
C_FG        C        0.375        0.203703        0.618189708029197        0.2        
C4        C        0.40625        0.148148        0.618189708029197        0        
C_FG        C        0.375        0.24074099999999998        0.618189708029197        0.2        
C2        C        0.40625        0.296297        0.618189708029197        0        
C_FG        C        0.375        0.314815        0.618189708029197        0.2        
C4        C        0.40625        0.259259        0.618189708029197        0        
C_FG        C        0.375        0.351852        0.618189708029197        0.2        
C2        C        0.40625        0.407408        0.618189708029197        0        
C_FG        C        0.375        0.425925        0.618189708029197        0.2        
C4        C        0.40625        0.37037        0.618189708029197        0        
C_FG        C        0.375        0.46296300000000007        0.618189708029197        0.2        
C2        C        0.40625        0.518519        0.618189708029197        0        
C_FG        C        0.375        0.537037        0.618189708029197        0.2        
C4        C        0.40625        0.481481        0.618189708029197        0        
C_FG        C        0.375        0.574075        0.618189708029197        0.2        
C2        C        0.40625        0.62963        0.618189708029197        0        
C_FG        C        0.375        0.648148        0.618189708029197        0.2        
C4        C        0.40625        0.592592        0.618189708029197        0        
C1        C        0.4375        0.018519        0.618189708029197        0        
C2        C        0.46875        0.074075        0.618189708029197        0        
C3        C        0.4375        0.092592        0.618189708029197        0        
C4        C        0.46875        0.037037        0.618189708029197        0        
C1        C        0.4375        0.12963        0.618189708029197        0        
C2        C        0.46875        0.185185        0.618189708029197        0        
C3        C        0.4375        0.203703        0.618189708029197        0        
C4        C        0.46875        0.148148        0.618189708029197        0        
C1        C        0.4375        0.24074099999999998        0.618189708029197        0        
C2        C        0.46875        0.296297        0.618189708029197        0        
C3        C        0.4375        0.314815        0.618189708029197        0        
C4        C        0.46875        0.259259        0.618189708029197        0        
C1        C        0.4375        0.351852        0.618189708029197        0        
C2        C        0.46875        0.407408        0.618189708029197        0        
C3        C        0.4375        0.425925        0.618189708029197        0        
C4        C        0.46875        0.37037        0.618189708029197        0        
C1        C        0.4375        0.46296300000000007        0.618189708029197        0        
C2        C        0.46875        0.518519        0.618189708029197        0        
C3        C        0.4375        0.537037        0.618189708029197        0        
C4        C        0.46875        0.481481        0.618189708029197        0        
C1        C        0.4375        0.574075        0.618189708029197        0        
C2        C        0.46875        0.62963        0.618189708029197        0        
C3        C        0.4375        0.648148        0.618189708029197        0        
C4        C        0.46875        0.592592        0.618189708029197        0        
C1        C        0.5        0.018519        0.618189708029197        0        
C2        C        0.53125        0.074075        0.618189708029197        0        
C3        C        0.5        0.092592        0.618189708029197        0        
C4        C        0.53125        0.037037        0.618189708029197        0        
C1        C        0.5        0.12963        0.618189708029197        0        
C2        C        0.53125        0.185185        0.618189708029197        0        
C3        C        0.5        0.203703        0.618189708029197        0        
C4        C        0.53125        0.148148        0.618189708029197        0        
C1        C        0.5        0.24074099999999998        0.618189708029197        0        
C2        C        0.53125        0.296297        0.618189708029197        0        
C3        C        0.5        0.314815        0.618189708029197        0        
C4        C        0.53125        0.259259        0.618189708029197        0        
C1        C        0.5        0.351852        0.618189708029197        0        
C2        C        0.53125        0.407408        0.618189708029197        0        
C3        C        0.5        0.425925        0.618189708029197        0        
C4        C        0.53125        0.37037        0.618189708029197        0        
C1        C        0.5        0.46296300000000007        0.618189708029197        0        
C2        C        0.53125        0.518519        0.618189708029197        0        
C3        C        0.5        0.537037        0.618189708029197        0        
C4        C        0.53125        0.481481        0.618189708029197        0        
C1        C        0.5        0.574075        0.618189708029197        0        
C2        C        0.53125        0.62963        0.618189708029197        0        
C3        C        0.5        0.648148        0.618189708029197        0        
C4        C        0.53125        0.592592        0.618189708029197        0        
C1        C        0.5625        0.018519        0.618189708029197        0        
C2        C        0.59375        0.074075        0.618189708029197        0        
C3        C        0.5625        0.092592        0.618189708029197        0        
C4        C        0.59375        0.037037        0.618189708029197        0        
C1        C        0.5625        0.12963        0.618189708029197        0        
C2        C        0.59375        0.185185        0.618189708029197        0        
C3        C        0.5625        0.203703        0.618189708029197        0        
C4        C        0.59375        0.148148        0.618189708029197        0        
C1        C        0.5625        0.24074099999999998        0.618189708029197        0        
C2        C        0.59375        0.296297        0.618189708029197        0        
C3        C        0.5625        0.314815        0.618189708029197        0        
C4        C        0.59375        0.259259        0.618189708029197        0        
C1        C        0.5625        0.351852        0.618189708029197        0        
C2        C        0.59375        0.407408        0.618189708029197        0        
C3        C        0.5625        0.425925        0.618189708029197        0        
C4        C        0.59375        0.37037        0.618189708029197        0        
C1        C        0.5625        0.46296300000000007        0.618189708029197        0        
C2        C        0.59375        0.518519        0.618189708029197        0        
C3        C        0.5625        0.537037        0.618189708029197        0        
C4        C        0.59375        0.481481        0.618189708029197        0        
C1        C        0.5625        0.574075        0.618189708029197        0        
C2        C        0.59375        0.62963        0.618189708029197        0        
C3        C        0.5625        0.648148        0.618189708029197        0        
C4        C        0.59375        0.592592        0.618189708029197        0        
C1        C        0.625        0.018519        0.618189708029197        0        
C2        C        0.65625        0.074075        0.618189708029197        0        
C3        C        0.625        0.092592        0.618189708029197        0        
C4        C        0.65625        0.037037        0.618189708029197        0        
C1        C        0.625        0.12963        0.618189708029197        0        
C2        C        0.65625        0.185185        0.618189708029197        0        
C3        C        0.625        0.203703        0.618189708029197        0        
C4        C        0.65625        0.148148        0.618189708029197        0        
C1        C        0.625        0.24074099999999998        0.618189708029197        0        
C2        C        0.65625        0.296297        0.618189708029197        0        
C3        C        0.625        0.314815        0.618189708029197        0        
C4        C        0.65625        0.259259        0.618189708029197        0        
C1        C        0.625        0.351852        0.618189708029197        0        
C2        C        0.65625        0.407408        0.618189708029197        0        
C3        C        0.625        0.425925        0.618189708029197        0        
C4        C        0.65625        0.37037        0.618189708029197        0        
C1        C        0.625        0.46296300000000007        0.618189708029197        0        
C2        C        0.65625        0.518519        0.618189708029197        0        
C3        C        0.625        0.537037        0.618189708029197        0        
C4        C        0.65625        0.481481        0.618189708029197        0        
C1        C        0.625        0.574075        0.618189708029197        0        
C2        C        0.65625        0.62963        0.618189708029197        0        
C3        C        0.625        0.648148        0.618189708029197        0        
C4        C        0.65625        0.592592        0.618189708029197        0        
C_FG        C        0.6875        0.018519        0.618189708029197        0.2        
C2        C        0.71875        0.074075        0.618189708029197        0        
C_FG        C        0.6875        0.092592        0.618189708029197        0.2        
C4        C        0.71875        0.037037        0.618189708029197        0        
C_FG        C        0.6875        0.12963        0.618189708029197        0.2        
C2        C        0.71875        0.185185        0.618189708029197        0        
C_FG        C        0.6875        0.203703        0.618189708029197        0.2        
C4        C        0.71875        0.148148        0.618189708029197        0        
C_FG        C        0.6875        0.24074099999999998        0.618189708029197        0.2        
C2        C        0.71875        0.296297        0.618189708029197        0        
C_FG        C        0.6875        0.314815        0.618189708029197        0.2        
C4        C        0.71875        0.259259        0.618189708029197        0        
C_FG        C        0.6875        0.351852        0.618189708029197        0.2        
C2        C        0.71875        0.407408        0.618189708029197        0        
C_FG        C        0.6875        0.425925        0.618189708029197        0.2        
C4        C        0.71875        0.37037        0.618189708029197        0        
C_FG        C        0.6875        0.46296300000000007        0.618189708029197        0.2        
C2        C        0.71875        0.518519        0.618189708029197        0        
C_FG        C        0.6875        0.537037        0.618189708029197        0.2        
C4        C        0.71875        0.481481        0.618189708029197        0        
C_FG        C        0.6875        0.574075        0.618189708029197        0.2        
C2        C        0.71875        0.62963        0.618189708029197        0        
C_FG        C        0.6875        0.648148        0.618189708029197        0.2        
C4        C        0.71875        0.592592        0.618189708029197        0        
C1        C        0.75        0.018519        0.618189708029197        0        
C2        C        0.78125        0.074075        0.618189708029197        0        
C3        C        0.75        0.092592        0.618189708029197        0        
C4        C        0.78125        0.037037        0.618189708029197        0        
C1        C        0.75        0.12963        0.618189708029197        0        
C2        C        0.78125        0.185185        0.618189708029197        0        
C3        C        0.75        0.203703        0.618189708029197        0        
C4        C        0.78125        0.148148        0.618189708029197        0        
C1        C        0.75        0.24074099999999998        0.618189708029197        0        
C2        C        0.78125        0.296297        0.618189708029197        0        
C3        C        0.75        0.314815        0.618189708029197        0        
C4        C        0.78125        0.259259        0.618189708029197        0        
C1        C        0.75        0.351852        0.618189708029197        0        
C2        C        0.78125        0.407408        0.618189708029197        0        
C3        C        0.75        0.425925        0.618189708029197        0        
C4        C        0.78125        0.37037        0.618189708029197        0        
C1        C        0.75        0.46296300000000007        0.618189708029197        0        
C2        C        0.78125        0.518519        0.618189708029197        0        
C3        C        0.75        0.537037        0.618189708029197        0        
C4        C        0.78125        0.481481        0.618189708029197        0        
C1        C        0.75        0.574075        0.618189708029197        0        
C2        C        0.78125        0.62963        0.618189708029197        0        
C3        C        0.75        0.648148        0.618189708029197        0        
C4        C        0.78125        0.592592        0.618189708029197        0        
C_FG        C        0.8125        0.018519        0.618189708029197        0.2        
C2        C        0.84375        0.074075        0.618189708029197        0        
C_FG        C        0.8125        0.092592        0.618189708029197        0.2        
C4        C        0.84375        0.037037        0.618189708029197        0        
C_FG        C        0.8125        0.12963        0.618189708029197        0.2        
C2        C        0.84375        0.185185        0.618189708029197        0        
C_FG        C        0.8125        0.203703        0.618189708029197        0.2        
C4        C        0.84375        0.148148        0.618189708029197        0        
C_FG        C        0.8125        0.24074099999999998        0.618189708029197        0.2        
C2        C        0.84375        0.296297        0.618189708029197        0        
C_FG        C        0.8125        0.314815        0.618189708029197        0.2        
C4        C        0.84375        0.259259        0.618189708029197        0        
C_FG        C        0.8125        0.351852        0.618189708029197        0.2        
C2        C        0.84375        0.407408        0.618189708029197        0        
C_FG        C        0.8125        0.425925        0.618189708029197        0.2        
C4        C        0.84375        0.37037        0.618189708029197        0        
C_FG        C        0.8125        0.46296300000000007        0.618189708029197        0.2        
C2        C        0.84375        0.518519        0.618189708029197        0        
C_FG        C        0.8125        0.537037        0.618189708029197        0.2        
C4        C        0.84375        0.481481        0.618189708029197        0        
C_FG        C        0.8125        0.574075        0.618189708029197        0.2        
C2        C        0.84375        0.62963        0.618189708029197        0        
C_FG        C        0.8125        0.648148        0.618189708029197        0.2        
C4        C        0.84375        0.592592        0.618189708029197        0        
C1        C        0.875        0.018519        0.618189708029197        0        
C_FG        C        0.9062500000000001        0.074075        0.618189708029197        0.2        
C3        C        0.875        0.092592        0.618189708029197        0        
C_FG        C        0.9062500000000001        0.037037        0.618189708029197        0.2        
C1        C        0.875        0.12963        0.618189708029197        0        
C_FG        C        0.9062500000000001        0.185185        0.618189708029197        0.2        
C3        C        0.875        0.203703        0.618189708029197        0        
C_FG        C        0.9062500000000001        0.148148        0.618189708029197        0.2        
C1        C        0.875        0.24074099999999998        0.618189708029197        0        
C_FG        C        0.9062500000000001        0.296297        0.618189708029197        0.2        
C3        C        0.875        0.314815        0.618189708029197        0        
C_FG        C        0.9062500000000001        0.259259        0.618189708029197        0.2        
C1        C        0.875        0.351852        0.618189708029197        0        
C_FG        C        0.9062500000000001        0.407408        0.618189708029197        0.2        
C3        C        0.875        0.425925        0.618189708029197        0        
C_FG        C        0.9062500000000001        0.37037        0.618189708029197        0.2        
C1        C        0.875        0.46296300000000007        0.618189708029197        0        
C_FG        C        0.9062500000000001        0.518519        0.618189708029197        0.2        
C3        C        0.875        0.537037        0.618189708029197        0        
C_FG        C        0.9062500000000001        0.481481        0.618189708029197        0.2        
C1        C        0.875        0.574075        0.618189708029197        0        
C_FG        C        0.9062500000000001        0.62963        0.618189708029197        0.2        
C3        C        0.875        0.648148        0.618189708029197        0        
C_FG        C        0.9062500000000001        0.592592        0.618189708029197        0.2        
C1        C        0.9375        0.018519        0.618189708029197        0        
C_FG        C        0.9687500000000001        0.074075        0.618189708029197        0.2        
C3        C        0.9375        0.092592        0.618189708029197        0        
C_FG        C        0.9687500000000001        0.037037        0.618189708029197        0.2        
C1        C        0.9375        0.12963        0.618189708029197        0        
C_FG        C        0.9687500000000001        0.185185        0.618189708029197        0.2        
C3        C        0.9375        0.203703        0.618189708029197        0        
C_FG        C        0.9687500000000001        0.148148        0.618189708029197        0.2        
C1        C        0.9375        0.24074099999999998        0.618189708029197        0        
C_FG        C        0.9687500000000001        0.296297        0.618189708029197        0.2        
C3        C        0.9375        0.314815        0.618189708029197        0        
C_FG        C        0.9687500000000001        0.259259        0.618189708029197        0.2        
C1        C        0.9375        0.351852        0.618189708029197        0        
C_FG        C        0.9687500000000001        0.407408        0.618189708029197        0.2        
C3        C        0.9375        0.425925        0.618189708029197        0        
C_FG        C        0.9687500000000001        0.37037        0.618189708029197        0.2        
C1        C        0.9375        0.46296300000000007        0.618189708029197        0        
C_FG        C        0.9687500000000001        0.518519        0.618189708029197        0.2        
C3        C        0.9375        0.537037        0.618189708029197        0        
C_FG        C        0.9687500000000001        0.481481        0.618189708029197        0.2        
C1        C        0.9375        0.574075        0.618189708029197        0        
C_FG        C        0.9687500000000001        0.62963        0.618189708029197        0.2        
C3        C        0.9375        0.648148        0.618189708029197        0        
C_FG        C        0.9687500000000001        0.592592        0.618189708029197        0.2        
C_FG        C        0.0        0.685186        0.618189708029197        0.2        
C1        C        0.0625        0.685186        0.618189708029197        0        
C_FG        C        0.125        0.685186        0.618189708029197        0.2        
C1        C        0.1875        0.685186        0.618189708029197        0        
C1        C        0.25        0.685186        0.618189708029197        0        
C1        C        0.3125        0.685186        0.618189708029197        0        
C_FG        C        0.375        0.685186        0.618189708029197        0.2        
C1        C        0.4375        0.685186        0.618189708029197        0        
C1        C        0.5        0.685186        0.618189708029197        0        
C1        C        0.5625        0.685186        0.618189708029197        0        
C1        C        0.625        0.685186        0.618189708029197        0        
C_FG        C        0.6875        0.685186        0.618189708029197        0.2        
C1        C        0.75        0.685186        0.618189708029197        0        
C_FG        C        0.8125        0.685186        0.618189708029197        0.2        
C1        C        0.875        0.685186        0.618189708029197        0        
C1        C        0.9375        0.685186        0.618189708029197        0        
C2        C        0.03125        0.740741        0.618189708029197        0        
C2        C        0.09375        0.740741        0.618189708029197        0        
C2        C        0.15625        0.740741        0.618189708029197        0        
C2        C        0.21875        0.740741        0.618189708029197        0        
C_FG        C        0.28125        0.740741        0.618189708029197        0.2        
C2        C        0.34375        0.740741        0.618189708029197        0        
C2        C        0.40625        0.740741        0.618189708029197        0        
C2        C        0.46875        0.740741        0.618189708029197        0        
C2        C        0.53125        0.740741        0.618189708029197        0        
C2        C        0.59375        0.740741        0.618189708029197        0        
C2        C        0.65625        0.740741        0.618189708029197        0        
C2        C        0.71875        0.740741        0.618189708029197        0        
C2        C        0.78125        0.740741        0.618189708029197        0        
C2        C        0.84375        0.740741        0.618189708029197        0        
C_FG        C        0.9062500000000001        0.740741        0.618189708029197        0.2        
C_FG        C        0.9687500000000001        0.740741        0.618189708029197        0.2        
C_FG        C        0.0        0.759259        0.618189708029197        0.2        
C3        C        0.0625        0.759259        0.618189708029197        0        
C_FG        C        0.125        0.759259        0.618189708029197        0.2        
C3        C        0.1875        0.759259        0.618189708029197        0        
C3        C        0.25        0.759259        0.618189708029197        0        
C3        C        0.3125        0.759259        0.618189708029197        0        
C_FG        C        0.375        0.759259        0.618189708029197        0.2        
C3        C        0.4375        0.759259        0.618189708029197        0        
C3        C        0.5        0.759259        0.618189708029197        0        
C3        C        0.5625        0.759259        0.618189708029197        0        
C3        C        0.625        0.759259        0.618189708029197        0        
C_FG        C        0.6875        0.759259        0.618189708029197        0.2        
C3        C        0.75        0.759259        0.618189708029197        0        
C_FG        C        0.8125        0.759259        0.618189708029197        0.2        
C3        C        0.875        0.759259        0.618189708029197        0        
C3        C        0.9375        0.759259        0.618189708029197        0        
C4        C        0.03125        0.703703        0.618189708029197        0        
C4        C        0.09375        0.703703        0.618189708029197        0        
C4        C        0.15625        0.703703        0.618189708029197        0        
C4        C        0.21875        0.703703        0.618189708029197        0        
C_FG        C        0.28125        0.703703        0.618189708029197        0.2        
C4        C        0.34375        0.703703        0.618189708029197        0        
C4        C        0.40625        0.703703        0.618189708029197        0        
C4        C        0.46875        0.703703        0.618189708029197        0        
C4        C        0.53125        0.703703        0.618189708029197        0        
C4        C        0.59375        0.703703        0.618189708029197        0        
C4        C        0.65625        0.703703        0.618189708029197        0        
C4        C        0.71875        0.703703        0.618189708029197        0        
C4        C        0.78125        0.703703        0.618189708029197        0        
C4        C        0.84375        0.703703        0.618189708029197        0        
C_FG        C        0.9062500000000001        0.703703        0.618189708029197        0.2        
C_FG        C        0.9687500000000001        0.703703        0.618189708029197        0.2        
C_FG        C        0.0        0.796297        0.618189708029197        0.2        
C1        C        0.0625        0.796297        0.618189708029197        0        
C_FG        C        0.125        0.796297        0.618189708029197        0.2        
C1        C        0.1875        0.796297        0.618189708029197        0        
C1        C        0.25        0.796297        0.618189708029197        0        
C1        C        0.3125        0.796297        0.618189708029197        0        
C_FG        C        0.375        0.796297        0.618189708029197        0.2        
C1        C        0.4375        0.796297        0.618189708029197        0        
C1        C        0.5        0.796297        0.618189708029197        0        
C1        C        0.5625        0.796297        0.618189708029197        0        
C1        C        0.625        0.796297        0.618189708029197        0        
C_FG        C        0.6875        0.796297        0.618189708029197        0.2        
C1        C        0.75        0.796297        0.618189708029197        0        
C_FG        C        0.8125        0.796297        0.618189708029197        0.2        
C1        C        0.875        0.796297        0.618189708029197        0        
C1        C        0.9375        0.796297        0.618189708029197        0        
C2        C        0.03125        0.851852        0.618189708029197        0        
C2        C        0.09375        0.851852        0.618189708029197        0        
C2        C        0.15625        0.851852        0.618189708029197        0        
C2        C        0.21875        0.851852        0.618189708029197        0        
C_FG        C        0.28125        0.851852        0.618189708029197        0.2        
C2        C        0.34375        0.851852        0.618189708029197        0        
C2        C        0.40625        0.851852        0.618189708029197        0        
C2        C        0.46875        0.851852        0.618189708029197        0        
C2        C        0.53125        0.851852        0.618189708029197        0        
C2        C        0.59375        0.851852        0.618189708029197        0        
C2        C        0.65625        0.851852        0.618189708029197        0        
C2        C        0.71875        0.851852        0.618189708029197        0        
C2        C        0.78125        0.851852        0.618189708029197        0        
C2        C        0.84375        0.851852        0.618189708029197        0        
C_FG        C        0.9062500000000001        0.851852        0.618189708029197        0.2        
C_FG        C        0.9687500000000001        0.851852        0.618189708029197        0.2        
C_FG        C        0.0        0.87037        0.618189708029197        0.2        
C3        C        0.0625        0.87037        0.618189708029197        0        
C_FG        C        0.125        0.87037        0.618189708029197        0.2        
C3        C        0.1875        0.87037        0.618189708029197        0        
C3        C        0.25        0.87037        0.618189708029197        0        
C3        C        0.3125        0.87037        0.618189708029197        0        
C_FG        C        0.375        0.87037        0.618189708029197        0.2        
C3        C        0.4375        0.87037        0.618189708029197        0        
C3        C        0.5        0.87037        0.618189708029197        0        
C3        C        0.5625        0.87037        0.618189708029197        0        
C3        C        0.625        0.87037        0.618189708029197        0        
C_FG        C        0.6875        0.87037        0.618189708029197        0.2        
C3        C        0.75        0.87037        0.618189708029197        0        
C_FG        C        0.8125        0.87037        0.618189708029197        0.2        
C3        C        0.875        0.87037        0.618189708029197        0        
C3        C        0.9375        0.87037        0.618189708029197        0        
C4        C        0.03125        0.814814        0.618189708029197        0        
C4        C        0.09375        0.814814        0.618189708029197        0        
C4        C        0.15625        0.814814        0.618189708029197        0        
C4        C        0.21875        0.814814        0.618189708029197        0        
C_FG        C        0.28125        0.814814        0.618189708029197        0.2        
C4        C        0.34375        0.814814        0.618189708029197        0        
C4        C        0.40625        0.814814        0.618189708029197        0        
C4        C        0.46875        0.814814        0.618189708029197        0        
C4        C        0.53125        0.814814        0.618189708029197        0        
C4        C        0.59375        0.814814        0.618189708029197        0        
C4        C        0.65625        0.814814        0.618189708029197        0        
C4        C        0.71875        0.814814        0.618189708029197        0        
C4        C        0.78125        0.814814        0.618189708029197        0        
C4        C        0.84375        0.814814        0.618189708029197        0        
C_FG        C        0.9062500000000001        0.814814        0.618189708029197        0.2        
C_FG        C        0.9687500000000001        0.814814        0.618189708029197        0.2        
C_FG        C        0.0        0.907408        0.618189708029197        0.2        
C1        C        0.0625        0.907408        0.618189708029197        0        
C_FG        C        0.125        0.907408        0.618189708029197        0.2        
C1        C        0.1875        0.907408        0.618189708029197        0        
C1        C        0.25        0.907408        0.618189708029197        0        
C1        C        0.3125        0.907408        0.618189708029197        0        
C_FG        C        0.375        0.907408        0.618189708029197        0.2        
C1        C        0.4375        0.907408        0.618189708029197        0        
C1        C        0.5        0.907408        0.618189708029197        0        
C1        C        0.5625        0.907408        0.618189708029197        0        
C1        C        0.625        0.907408        0.618189708029197        0        
C_FG        C        0.6875        0.907408        0.618189708029197        0.2        
C1        C        0.75        0.907408        0.618189708029197        0        
C_FG        C        0.8125        0.907408        0.618189708029197        0.2        
C1        C        0.875        0.907408        0.618189708029197        0        
C1        C        0.9375        0.907408        0.618189708029197        0        
C2        C        0.03125        0.962963        0.618189708029197        0        
C2        C        0.09375        0.962963        0.618189708029197        0        
C2        C        0.15625        0.962963        0.618189708029197        0        
C2        C        0.21875        0.962963        0.618189708029197        0        
C_FG        C        0.28125        0.962963        0.618189708029197        0.2        
C2        C        0.34375        0.962963        0.618189708029197        0        
C2        C        0.40625        0.962963        0.618189708029197        0        
C2        C        0.46875        0.962963        0.618189708029197        0        
C2        C        0.53125        0.962963        0.618189708029197        0        
C2        C        0.59375        0.962963        0.618189708029197        0        
C2        C        0.65625        0.962963        0.618189708029197        0        
C2        C        0.71875        0.962963        0.618189708029197        0        
C2        C        0.78125        0.962963        0.618189708029197        0        
C2        C        0.84375        0.962963        0.618189708029197        0        
C_FG        C        0.9062500000000001        0.962963        0.618189708029197        0.2        
C_FG        C        0.9687500000000001        0.962963        0.618189708029197        0.2        
C_FG        C        0.0        0.9814809999999999        0.618189708029197        0.2        
C3        C        0.0625        0.9814809999999999        0.618189708029197        0        
C_FG        C        0.125        0.9814809999999999        0.618189708029197        0.2        
C3        C        0.1875        0.9814809999999999        0.618189708029197        0        
C3        C        0.25        0.9814809999999999        0.618189708029197        0        
C3        C        0.3125        0.9814809999999999        0.618189708029197        0        
C_FG        C        0.375        0.9814809999999999        0.618189708029197        0.2        
C3        C        0.4375        0.9814809999999999        0.618189708029197        0        
C3        C        0.5        0.9814809999999999        0.618189708029197        0        
C3        C        0.5625        0.9814809999999999        0.618189708029197        0        
C3        C        0.625        0.9814809999999999        0.618189708029197        0        
C_FG        C        0.6875        0.9814809999999999        0.618189708029197        0.2        
C3        C        0.75        0.9814809999999999        0.618189708029197        0        
C_FG        C        0.8125        0.9814809999999999        0.618189708029197        0.2        
C3        C        0.875        0.9814809999999999        0.618189708029197        0        
C3        C        0.9375        0.9814809999999999        0.618189708029197        0        
C4        C        0.03125        0.925925        0.618189708029197        0        
C4        C        0.09375        0.925925        0.618189708029197        0        
C4        C        0.15625        0.925925        0.618189708029197        0        
C4        C        0.21875        0.925925        0.618189708029197        0        
C_FG        C        0.28125        0.925925        0.618189708029197        0.2        
C4        C        0.34375        0.925925        0.618189708029197        0        
C4        C        0.40625        0.925925        0.618189708029197        0        
C4        C        0.46875        0.925925        0.618189708029197        0        
C4        C        0.53125        0.925925        0.618189708029197        0        
C4        C        0.59375        0.925925        0.618189708029197        0        
C4        C        0.65625        0.925925        0.618189708029197        0        
C4        C        0.71875        0.925925        0.618189708029197        0        
C4        C        0.78125        0.925925        0.618189708029197        0        
C4        C        0.84375        0.925925        0.618189708029197        0        
C_FG        C        0.9062500000000001        0.925925        0.618189708029197        0.2        
C_FG        C        0.9687500000000001        0.925925        0.618189708029197        0.2        
O_OH        O        0.0        0.018519        0.024540072992700723        -0.64        
O_OH        O        0.0        0.092592        0.024540072992700723        -0.64        
O_OH        O        0.0        0.12963        0.024540072992700723        -0.64        
O_OH        O        0.0        0.203703        0.024540072992700723        -0.64        
O_OH        O        0.0        0.24074099999999998        0.024540072992700723        -0.64        
O_OH        O        0.0        0.314815        0.024540072992700723        -0.64        
O_OH        O        0.0        0.351852        0.024540072992700723        -0.64        
O_OH        O        0.0        0.425925        0.024540072992700723        -0.64        
O_OH        O        0.0        0.46296300000000007        0.024540072992700723        -0.64        
O_OH        O        0.0        0.537037        0.024540072992700723        -0.64        
O_OH        O        0.0        0.574075        0.024540072992700723        -0.64        
O_OH        O        0.0        0.648148        0.024540072992700723        -0.64        
O_OH        O        0.125        0.018519        0.024540072992700723        -0.64        
O_OH        O        0.125        0.092592        0.024540072992700723        -0.64        
O_OH        O        0.125        0.12963        0.024540072992700723        -0.64        
O_OH        O        0.125        0.203703        0.024540072992700723        -0.64        
O_OH        O        0.125        0.24074099999999998        0.024540072992700723        -0.64        
O_OH        O        0.125        0.314815        0.024540072992700723        -0.64        
O_OH        O        0.125        0.351852        0.024540072992700723        -0.64        
O_OH        O        0.125        0.425925        0.024540072992700723        -0.64        
O_OH        O        0.125        0.46296300000000007        0.024540072992700723        -0.64        
O_OH        O        0.125        0.537037        0.024540072992700723        -0.64        
O_OH        O        0.125        0.574075        0.024540072992700723        -0.64        
O_OH        O        0.125        0.648148        0.024540072992700723        -0.64        
O_OH        O        0.28125        0.074075        0.024540072992700723        -0.64        
O_OH        O        0.28125        0.037037        0.024540072992700723        -0.64        
O_OH        O        0.28125        0.185185        0.024540072992700723        -0.64        
O_OH        O        0.28125        0.148148        0.024540072992700723        -0.64        
O_OH        O        0.28125        0.296297        0.024540072992700723        -0.64        
O_OH        O        0.28125        0.259259        0.024540072992700723        -0.64        
O_OH        O        0.28125        0.407408        0.024540072992700723        -0.64        
O_OH        O        0.28125        0.37037        0.024540072992700723        -0.64        
O_OH        O        0.28125        0.518519        0.024540072992700723        -0.64        
O_OH        O        0.28125        0.481481        0.024540072992700723        -0.64        
O_OH        O        0.28125        0.62963        0.024540072992700723        -0.64        
O_OH        O        0.28125        0.592592        0.024540072992700723        -0.64        
O_OH        O        0.375        0.018519        0.024540072992700723        -0.64        
O_OH        O        0.375        0.092592        0.024540072992700723        -0.64        
O_OH        O        0.375        0.12963        0.024540072992700723        -0.64        
O_OH        O        0.375        0.203703        0.024540072992700723        -0.64        
O_OH        O        0.375        0.24074099999999998        0.024540072992700723        -0.64        
O_OH        O        0.375        0.314815        0.024540072992700723        -0.64        
O_OH        O        0.375        0.351852        0.024540072992700723        -0.64        
O_OH        O        0.375        0.425925        0.024540072992700723        -0.64        
O_OH        O        0.375        0.46296300000000007        0.024540072992700723        -0.64        
O_OH        O        0.375        0.537037        0.024540072992700723        -0.64        
O_OH        O        0.375        0.574075        0.024540072992700723        -0.64        
O_OH        O        0.375        0.648148        0.024540072992700723        -0.64        
O_OH        O        0.6875        0.018519        0.024540072992700723        -0.64        
O_OH        O        0.6875        0.092592        0.024540072992700723        -0.64        
O_OH        O        0.6875        0.12963        0.024540072992700723        -0.64        
O_OH        O        0.6875        0.203703        0.024540072992700723        -0.64        
O_OH        O        0.6875        0.24074099999999998        0.024540072992700723        -0.64        
O_OH        O        0.6875        0.314815        0.024540072992700723        -0.64        
O_OH        O        0.6875        0.351852        0.024540072992700723        -0.64        
O_OH        O        0.6875        0.425925        0.024540072992700723        -0.64        
O_OH        O        0.6875        0.46296300000000007        0.024540072992700723        -0.64        
O_OH        O        0.6875        0.537037        0.024540072992700723        -0.64        
O_OH        O        0.6875        0.574075        0.024540072992700723        -0.64        
O_OH        O        0.6875        0.648148        0.024540072992700723        -0.64        
O_OH        O        0.8125        0.018519        0.024540072992700723        -0.64        
O_OH        O        0.8125        0.092592        0.024540072992700723        -0.64        
O_OH        O        0.8125        0.12963        0.024540072992700723        -0.64        
O_OH        O        0.8125        0.203703        0.024540072992700723        -0.64        
O_OH        O        0.8125        0.24074099999999998        0.024540072992700723        -0.64        
O_OH        O        0.8125        0.314815        0.024540072992700723        -0.64        
O_OH        O        0.8125        0.351852        0.024540072992700723        -0.64        
O_OH        O        0.8125        0.425925        0.024540072992700723        -0.64        
O_OH        O        0.8125        0.46296300000000007        0.024540072992700723        -0.64        
O_OH        O        0.8125        0.537037        0.024540072992700723        -0.64        
O_OH        O        0.8125        0.574075        0.024540072992700723        -0.64        
O_OH        O        0.8125        0.648148        0.024540072992700723        -0.64        
O_OH        O        0.9062500000000001        0.074075        0.024540072992700723        -0.64        
O_OH        O        0.9062500000000001        0.037037        0.024540072992700723        -0.64        
O_OH        O        0.9062500000000001        0.185185        0.024540072992700723        -0.64        
O_OH        O        0.9062500000000001        0.148148        0.024540072992700723        -0.64        
O_OH        O        0.9062500000000001        0.296297        0.024540072992700723        -0.64        
O_OH        O        0.9062500000000001        0.259259        0.024540072992700723        -0.64        
O_OH        O        0.9062500000000001        0.407408        0.024540072992700723        -0.64        
O_OH        O        0.9062500000000001        0.37037        0.024540072992700723        -0.64        
O_OH        O        0.9062500000000001        0.518519        0.024540072992700723        -0.64        
O_OH        O        0.9062500000000001        0.481481        0.024540072992700723        -0.64        
O_OH        O        0.9062500000000001        0.62963        0.024540072992700723        -0.64        
O_OH        O        0.9062500000000001        0.592592        0.024540072992700723        -0.64        
O_OH        O        0.9687500000000001        0.074075        0.024540072992700723        -0.64        
O_OH        O        0.9687500000000001        0.037037        0.024540072992700723        -0.64        
O_OH        O        0.9687500000000001        0.185185        0.024540072992700723        -0.64        
O_OH        O        0.9687500000000001        0.148148        0.024540072992700723        -0.64        
O_OH        O        0.9687500000000001        0.296297        0.024540072992700723        -0.64        
O_OH        O        0.9687500000000001        0.259259        0.024540072992700723        -0.64        
O_OH        O        0.9687500000000001        0.407408        0.024540072992700723        -0.64        
O_OH        O        0.9687500000000001        0.37037        0.024540072992700723        -0.64        
O_OH        O        0.9687500000000001        0.518519        0.024540072992700723        -0.64        
O_OH        O        0.9687500000000001        0.481481        0.024540072992700723        -0.64        
O_OH        O        0.9687500000000001        0.62963        0.024540072992700723        -0.64        
O_OH        O        0.9687500000000001        0.592592        0.024540072992700723        -0.64        
O_OH        O        0.0        0.685186        0.024540072992700723        -0.64        
O_OH        O        0.125        0.685186        0.024540072992700723        -0.64        
O_OH        O        0.375        0.685186        0.024540072992700723        -0.64        
O_OH        O        0.6875        0.685186        0.024540072992700723        -0.64        
O_OH        O        0.8125        0.685186        0.024540072992700723        -0.64        
O_OH        O        0.28125        0.740741        0.024540072992700723        -0.64        
O_OH        O        0.9062500000000001        0.740741        0.024540072992700723        -0.64        
O_OH        O        0.9687500000000001        0.740741        0.024540072992700723        -0.64        
O_OH        O        0.0        0.759259        0.024540072992700723        -0.64        
O_OH        O        0.125        0.759259        0.024540072992700723        -0.64        
O_OH        O        0.375        0.759259        0.024540072992700723        -0.64        
O_OH        O        0.6875        0.759259        0.024540072992700723        -0.64        
O_OH        O        0.8125        0.759259        0.024540072992700723        -0.64        
O_OH        O        0.28125        0.703703        0.024540072992700723        -0.64        
O_OH        O        0.9062500000000001        0.703703        0.024540072992700723        -0.64        
O_OH        O        0.9687500000000001        0.703703        0.024540072992700723        -0.64        
O_OH        O        0.0        0.796297        0.024540072992700723        -0.64        
O_OH        O        0.125        0.796297        0.024540072992700723        -0.64        
O_OH        O        0.375        0.796297        0.024540072992700723        -0.64        
O_OH        O        0.6875        0.796297        0.024540072992700723        -0.64        
O_OH        O        0.8125        0.796297        0.024540072992700723        -0.64        
O_OH        O        0.28125        0.851852        0.024540072992700723        -0.64        
O_OH        O        0.9062500000000001        0.851852        0.024540072992700723        -0.64        
O_OH        O        0.9687500000000001        0.851852        0.024540072992700723        -0.64        
O_OH        O        0.0        0.87037        0.024540072992700723        -0.64        
O_OH        O        0.125        0.87037        0.024540072992700723        -0.64        
O_OH        O        0.375        0.87037        0.024540072992700723        -0.64        
O_OH        O        0.6875        0.87037        0.024540072992700723        -0.64        
O_OH        O        0.8125        0.87037        0.024540072992700723        -0.64        
O_OH        O        0.28125        0.814814        0.024540072992700723        -0.64        
O_OH        O        0.9062500000000001        0.814814        0.024540072992700723        -0.64        
O_OH        O        0.9687500000000001        0.814814        0.024540072992700723        -0.64        
O_OH        O        0.0        0.907408        0.024540072992700723        -0.64        
O_OH        O        0.125        0.907408        0.024540072992700723        -0.64        
O_OH        O        0.375        0.907408        0.024540072992700723        -0.64        
O_OH        O        0.6875        0.907408        0.024540072992700723        -0.64        
O_OH        O        0.8125        0.907408        0.024540072992700723        -0.64        
O_OH        O        0.28125        0.962963        0.024540072992700723        -0.64        
O_OH        O        0.9062500000000001        0.962963        0.024540072992700723        -0.64        
O_OH        O        0.9687500000000001        0.962963        0.024540072992700723        -0.64        
O_OH        O        0.0        0.9814809999999999        0.024540072992700723        -0.64        
O_OH        O        0.125        0.9814809999999999        0.024540072992700723        -0.64        
O_OH        O        0.375        0.9814809999999999        0.024540072992700723        -0.64        
O_OH        O        0.6875        0.9814809999999999        0.024540072992700723        -0.64        
O_OH        O        0.8125        0.9814809999999999        0.024540072992700723        -0.64        
O_OH        O        0.28125        0.925925        0.024540072992700723        -0.64        
O_OH        O        0.9062500000000001        0.925925        0.024540072992700723        -0.64        
O_OH        O        0.9687500000000001        0.925925        0.024540072992700723        -0.64        
O_OH        O        0.0        0.018519        0.7227882481751825        -0.64        
O_OH        O        0.0        0.092592        0.7227882481751825        -0.64        
O_OH        O        0.0        0.12963        0.7227882481751825        -0.64        
O_OH        O        0.0        0.203703        0.7227882481751825        -0.64        
O_OH        O        0.0        0.24074099999999998        0.7227882481751825        -0.64        
O_OH        O        0.0        0.314815        0.7227882481751825        -0.64        
O_OH        O        0.0        0.351852        0.7227882481751825        -0.64        
O_OH        O        0.0        0.425925        0.7227882481751825        -0.64        
O_OH        O        0.0        0.46296300000000007        0.7227882481751825        -0.64        
O_OH        O        0.0        0.537037        0.7227882481751825        -0.64        
O_OH        O        0.0        0.574075        0.7227882481751825        -0.64        
O_OH        O        0.0        0.648148        0.7227882481751825        -0.64        
O_OH        O        0.125        0.018519        0.7227882481751825        -0.64        
O_OH        O        0.125        0.092592        0.7227882481751825        -0.64        
O_OH        O        0.125        0.12963        0.7227882481751825        -0.64        
O_OH        O        0.125        0.203703        0.7227882481751825        -0.64        
O_OH        O        0.125        0.24074099999999998        0.7227882481751825        -0.64        
O_OH        O        0.125        0.314815        0.7227882481751825        -0.64        
O_OH        O        0.125        0.351852        0.7227882481751825        -0.64        
O_OH        O        0.125        0.425925        0.7227882481751825        -0.64        
O_OH        O        0.125        0.46296300000000007        0.7227882481751825        -0.64        
O_OH        O        0.125        0.537037        0.7227882481751825        -0.64        
O_OH        O        0.125        0.574075        0.7227882481751825        -0.64        
O_OH        O        0.125        0.648148        0.7227882481751825        -0.64        
O_OH        O        0.28125        0.074075        0.7227882481751825        -0.64        
O_OH        O        0.28125        0.037037        0.7227882481751825        -0.64        
O_OH        O        0.28125        0.185185        0.7227882481751825        -0.64        
O_OH        O        0.28125        0.148148        0.7227882481751825        -0.64        
O_OH        O        0.28125        0.296297        0.7227882481751825        -0.64        
O_OH        O        0.28125        0.259259        0.7227882481751825        -0.64        
O_OH        O        0.28125        0.407408        0.7227882481751825        -0.64        
O_OH        O        0.28125        0.37037        0.7227882481751825        -0.64        
O_OH        O        0.28125        0.518519        0.7227882481751825        -0.64        
O_OH        O        0.28125        0.481481        0.7227882481751825        -0.64        
O_OH        O        0.28125        0.62963        0.7227882481751825        -0.64        
O_OH        O        0.28125        0.592592        0.7227882481751825        -0.64        
O_OH        O        0.375        0.018519        0.7227882481751825        -0.64        
O_OH        O        0.375        0.092592        0.7227882481751825        -0.64        
O_OH        O        0.375        0.12963        0.7227882481751825        -0.64        
O_OH        O        0.375        0.203703        0.7227882481751825        -0.64        
O_OH        O        0.375        0.24074099999999998        0.7227882481751825        -0.64        
O_OH        O        0.375        0.314815        0.7227882481751825        -0.64        
O_OH        O        0.375        0.351852        0.7227882481751825        -0.64        
O_OH        O        0.375        0.425925        0.7227882481751825        -0.64        
O_OH        O        0.375        0.46296300000000007        0.7227882481751825        -0.64        
O_OH        O        0.375        0.537037        0.7227882481751825        -0.64        
O_OH        O        0.375        0.574075        0.7227882481751825        -0.64        
O_OH        O        0.375        0.648148        0.7227882481751825        -0.64        
O_OH        O        0.6875        0.018519        0.7227882481751825        -0.64        
O_OH        O        0.6875        0.092592        0.7227882481751825        -0.64        
O_OH        O        0.6875        0.12963        0.7227882481751825        -0.64        
O_OH        O        0.6875        0.203703        0.7227882481751825        -0.64        
O_OH        O        0.6875        0.24074099999999998        0.7227882481751825        -0.64        
O_OH        O        0.6875        0.314815        0.7227882481751825        -0.64        
O_OH        O        0.6875        0.351852        0.7227882481751825        -0.64        
O_OH        O        0.6875        0.425925        0.7227882481751825        -0.64        
O_OH        O        0.6875        0.46296300000000007        0.7227882481751825        -0.64        
O_OH        O        0.6875        0.537037        0.7227882481751825        -0.64        
O_OH        O        0.6875        0.574075        0.7227882481751825        -0.64        
O_OH        O        0.6875        0.648148        0.7227882481751825        -0.64        
O_OH        O        0.8125        0.018519        0.7227882481751825        -0.64        
O_OH        O        0.8125        0.092592        0.7227882481751825        -0.64        
O_OH        O        0.8125        0.12963        0.7227882481751825        -0.64        
O_OH        O        0.8125        0.203703        0.7227882481751825        -0.64        
O_OH        O        0.8125        0.24074099999999998        0.7227882481751825        -0.64        
O_OH        O        0.8125        0.314815        0.7227882481751825        -0.64        
O_OH        O        0.8125        0.351852        0.7227882481751825        -0.64        
O_OH        O        0.8125        0.425925        0.7227882481751825        -0.64        
O_OH        O        0.8125        0.46296300000000007        0.7227882481751825        -0.64        
O_OH        O        0.8125        0.537037        0.7227882481751825        -0.64        
O_OH        O        0.8125        0.574075        0.7227882481751825        -0.64        
O_OH        O        0.8125        0.648148        0.7227882481751825        -0.64        
O_OH        O        0.9062500000000001        0.074075        0.7227882481751825        -0.64        
O_OH        O        0.9062500000000001        0.037037        0.7227882481751825        -0.64        
O_OH        O        0.9062500000000001        0.185185        0.7227882481751825        -0.64        
O_OH        O        0.9062500000000001        0.148148        0.7227882481751825        -0.64        
O_OH        O        0.9062500000000001        0.296297        0.7227882481751825        -0.64        
O_OH        O        0.9062500000000001        0.259259        0.7227882481751825        -0.64        
O_OH        O        0.9062500000000001        0.407408        0.7227882481751825        -0.64        
O_OH        O        0.9062500000000001        0.37037        0.7227882481751825        -0.64        
O_OH        O        0.9062500000000001        0.518519        0.7227882481751825        -0.64        
O_OH        O        0.9062500000000001        0.481481        0.7227882481751825        -0.64        
O_OH        O        0.9062500000000001        0.62963        0.7227882481751825        -0.64        
O_OH        O        0.9062500000000001        0.592592        0.7227882481751825        -0.64        
O_OH        O        0.9687500000000001        0.074075        0.7227882481751825        -0.64        
O_OH        O        0.9687500000000001        0.037037        0.7227882481751825        -0.64        
O_OH        O        0.9687500000000001        0.185185        0.7227882481751825        -0.64        
O_OH        O        0.9687500000000001        0.148148        0.7227882481751825        -0.64        
O_OH        O        0.9687500000000001        0.296297        0.7227882481751825        -0.64        
O_OH        O        0.9687500000000001        0.259259        0.7227882481751825        -0.64        
O_OH        O        0.9687500000000001        0.407408        0.7227882481751825        -0.64        
O_OH        O        0.9687500000000001        0.37037        0.7227882481751825        -0.64        
O_OH        O        0.9687500000000001        0.518519        0.7227882481751825        -0.64        
O_OH        O        0.9687500000000001        0.481481        0.7227882481751825        -0.64        
O_OH        O        0.9687500000000001        0.62963        0.7227882481751825        -0.64        
O_OH        O        0.9687500000000001        0.592592        0.7227882481751825        -0.64        
O_OH        O        0.0        0.685186        0.7227882481751825        -0.64        
O_OH        O        0.125        0.685186        0.7227882481751825        -0.64        
O_OH        O        0.375        0.685186        0.7227882481751825        -0.64        
O_OH        O        0.6875        0.685186        0.7227882481751825        -0.64        
O_OH        O        0.8125        0.685186        0.7227882481751825        -0.64        
O_OH        O        0.28125        0.740741        0.7227882481751825        -0.64        
O_OH        O        0.9062500000000001        0.740741        0.7227882481751825        -0.64        
O_OH        O        0.9687500000000001        0.740741        0.7227882481751825        -0.64        
O_OH        O        0.0        0.759259        0.7227882481751825        -0.64        
O_OH        O        0.125        0.759259        0.7227882481751825        -0.64        
O_OH        O        0.375        0.759259        0.7227882481751825        -0.64        
O_OH        O        0.6875        0.759259        0.7227882481751825        -0.64        
O_OH        O        0.8125        0.759259        0.7227882481751825        -0.64        
O_OH        O        0.28125        0.703703        0.7227882481751825        -0.64        
O_OH        O        0.9062500000000001        0.703703        0.7227882481751825        -0.64        
O_OH        O        0.9687500000000001        0.703703        0.7227882481751825        -0.64        
O_OH        O        0.0        0.796297        0.7227882481751825        -0.64        
O_OH        O        0.125        0.796297        0.7227882481751825        -0.64        
O_OH        O        0.375        0.796297        0.7227882481751825        -0.64        
O_OH        O        0.6875        0.796297        0.7227882481751825        -0.64        
O_OH        O        0.8125        0.796297        0.7227882481751825        -0.64        
O_OH        O        0.28125        0.851852        0.7227882481751825        -0.64        
O_OH        O        0.9062500000000001        0.851852        0.7227882481751825        -0.64        
O_OH        O        0.9687500000000001        0.851852        0.7227882481751825        -0.64        
O_OH        O        0.0        0.87037        0.7227882481751825        -0.64        
O_OH        O        0.125        0.87037        0.7227882481751825        -0.64        
O_OH        O        0.375        0.87037        0.7227882481751825        -0.64        
O_OH        O        0.6875        0.87037        0.7227882481751825        -0.64        
O_OH        O        0.8125        0.87037        0.7227882481751825        -0.64        
O_OH        O        0.28125        0.814814        0.7227882481751825        -0.64        
O_OH        O        0.9062500000000001        0.814814        0.7227882481751825        -0.64        
O_OH        O        0.9687500000000001        0.814814        0.7227882481751825        -0.64        
O_OH        O        0.0        0.907408        0.7227882481751825        -0.64        
O_OH        O        0.125        0.907408        0.7227882481751825        -0.64        
O_OH        O        0.375        0.907408        0.7227882481751825        -0.64        
O_OH        O        0.6875        0.907408        0.7227882481751825        -0.64        
O_OH        O        0.8125        0.907408        0.7227882481751825        -0.64        
O_OH        O        0.28125        0.962963        0.7227882481751825        -0.64        
O_OH        O        0.9062500000000001        0.962963        0.7227882481751825        -0.64        
O_OH        O        0.9687500000000001        0.962963        0.7227882481751825        -0.64        
O_OH        O        0.0        0.9814809999999999        0.7227882481751825        -0.64        
O_OH        O        0.125        0.9814809999999999        0.7227882481751825        -0.64        
O_OH        O        0.375        0.9814809999999999        0.7227882481751825        -0.64        
O_OH        O        0.6875        0.9814809999999999        0.7227882481751825        -0.64        
O_OH        O        0.8125        0.9814809999999999        0.7227882481751825        -0.64        
O_OH        O        0.28125        0.925925        0.7227882481751825        -0.64        
O_OH        O        0.9062500000000001        0.925925        0.7227882481751825        -0.64        
O_OH        O        0.9687500000000001        0.925925        0.7227882481751825        -0.64        
H_OH        H        -0.0066872101722896295        0.040945201599943234        0.0        0.44        
H_OH        H        0.021416504368595962        0.10075706340258657        0.0        0.44        
H_OH        H        -0.002690066710749304        0.15292029267276774        0.0        0.44        
H_OH        H        0.002068909622622021        0.22706007995411268        0.0        0.44        
H_OH        H        -0.013085079893248483        0.2599663371943501        0.0        0.44        
H_OH        H        -0.022043191510316102        0.32097650904795966        0.0        0.44        
H_OH        H        -0.018985953780883708        0.36489665535450017        0.0        0.44        
H_OH        H        -0.019735556736565928        0.43773907314468946        0.0        0.44        
H_OH        H        -0.008199933218262607        0.48485364184038865        0.0        0.44        
H_OH        H        -0.004697075589304902        0.5599893922938574        0.0        0.44        
H_OH        H        0.021862466447055934        0.5808813838712833        0.0        0.44        
H_OH        H        -0.012043837679136036        0.6680776162914889        0.0        0.44        
H_OH        H        0.14706983470182775        0.024579157913132317        0.0        0.44        
H_OH        H        0.10703823440212652        0.10708491915100898        0.0        0.44        
H_OH        H        0.10451570285804107        0.1400143371644887        0.0        0.44        
H_OH        H        0.10483924618840164        0.21473449632765412        0.0        0.44        
H_OH        H        0.13648958797705626        0.2610125625003382        0.0        0.44        
H_OH        H        0.12325468496767983        0.3381999095109748        0.0        0.44        
H_OH        H        0.1103066382613389        0.36981110084120905        0.0        0.44        
H_OH        H        0.1340505938821962        0.44745949963734055        0.0        0.44        
H_OH        H        0.14392639398500995        0.4760985559430542        0.0        0.44        
H_OH        H        0.10719412021047295        0.5517312502730127        0.0        0.44        
H_OH        H        0.10220933299166136        0.5757013891126291        0.0        0.44        
H_OH        H        0.13288056505942283        0.6701619203649481        0.0        0.44        
H_OH        H        0.30183512308517185        0.08424703700830215        0.0        0.44        
H_OH        H        0.26031870450499495        0.046435065088639295        0.0        0.44        
H_OH        H        0.25842992006317006        0.18629462392179516        0.0        0.44        
H_OH        H        0.2976455460415363        0.1644806995075708        0.0        0.44        
H_OH        H        0.30262001432090163        0.3045894456198195        0.0        0.44        
H_OH        H        0.25927610751312297        0.2656760863017322        0.0        0.44        
H_OH        H        0.2673558437220562        0.42602542293191176        0.0        0.44        
H_OH        H        0.3012868158824242        0.38163696605339914        0.0        0.44        
H_OH        H        0.2616774317866013        0.5306154674404594        0.0        0.44        
H_OH        H        0.2770594159390742        0.5045365099733244        0.0        0.44        
H_OH        H        0.2944230740027791        0.6487919010345274        0.0        0.44        
H_OH        H        0.2899470776823091        0.6142794857303733        0.0        0.44        
H_OH        H        0.35350773903854066        0.02647150767074793        0.0        0.44        
H_OH        H        0.38338177074462476        0.1144099389077084        0.0        0.44        
H_OH        H        0.38727956553300763        0.14940743067272788        0.0        0.44        
H_OH        H        0.37441687906621646        0.22714880962423886        0.0        0.44        
H_OH        H        0.36200765339876184        0.2600325063632949        0.0        0.44        
H_OH        H        0.3654653991600141        0.33612824278056946        0.0        0.44        
H_OH        H        0.37615432716544006        0.37527549332147137        0.0        0.44        
H_OH        H        0.39682090055729363        0.4328705378910319        0.0        0.44        
H_OH        H        0.3958235574634922        0.47261000774503736        0.0        0.44        
H_OH        H        0.3931938680004682        0.5512215142326146        0.0        0.44        
H_OH        H        0.3750652603456502        0.5975283550574997        0.0        0.44        
H_OH        H        0.39682635852825127        0.6550754401461981        0.0        0.44        
H_OH        H        0.7100069127410379        0.022542869395848517        0.0        0.44        
H_OH        H        0.6648661008792958        0.09577793724937417        0.0        0.44        
H_OH        H        0.6783915612058454        0.15113878037675954        0.0        0.44        
H_OH        H        0.6917473157158466        0.22674756627446516        0.0        0.44        
H_OH        H        0.705299858172712        0.25544293711692384        0.0        0.44        
H_OH        H        0.6824968984173967        0.3376991376486648        0.0        0.44        
H_OH        H        0.6698877291703793        0.36679013838603425        0.0        0.44        
H_OH        H        0.7069704622316031        0.4381939033225976        0.0        0.44        
H_OH        H        0.7063990464700634        0.47613998880880554        0.0        0.44        
H_OH        H        0.6672820275373885        0.5479575735552615        0.0        0.44        
H_OH        H        0.710305905371172        0.5754580628083749        0.0        0.44        
H_OH        H        0.7083111936409181        0.6578230853803189        0.0        0.44        
H_OH        H        0.8180622190377451        0.041266703305646635        0.0        0.44        
H_OH        H        0.8114146870303225        0.11601897035390694        0.0        0.44        
H_OH        H        0.8294345506030599        0.14537240755672326        0.0        0.44        
H_OH        H        0.8351050503254615        0.20709794483361357        0.0        0.44        
H_OH        H        0.8155838869771562        0.26397978726197646        0.0        0.44        
H_OH        H        0.8099734458450352        0.338124583976388        0.0        0.44        
H_OH        H        0.7933263531004571        0.3646040420798289        0.0        0.44        
H_OH        H        0.7951026592984218        0.4411262596685698        0.0        0.44        
H_OH        H        0.8094626132519205        0.4862082408182336        0.0        0.44        
H_OH        H        0.801126241746604        0.5573772872244807        0.0        0.44        
H_OH        H        0.7954422771582471        0.5896766265332865        0.0        0.44        
H_OH        H        0.799568923786515        0.6674828440034348        0.0        0.44        
H_OH        H        0.8923798408658509        0.09271127170713479        0.0        0.44        
H_OH        H        0.8907177398916345        0.05423601084622079        0.0        0.44        
H_OH        H        0.8851185714998031        0.19409856361794656        0.0        0.44        
H_OH        H        0.9094143661728974        0.1713753818405141        0.0        0.44        
H_OH        H        0.8894618393563593        0.31220379813448307        0.0        0.44        
H_OH        H        0.8866718297728389        0.2713459093056832        0.0        0.44        
H_OH        H        0.8922737120701341        0.42596051937111795        0.0        0.44        
H_OH        H        0.9248676107290676        0.38396267578467747        0.0        0.44        
H_OH        H        0.897493833144093        0.540181412980674        0.0        0.44        
H_OH        H        0.9088997170654323        0.5047761670481288        0.0        0.44        
H_OH        H        0.9047305458985745        0.6530315198940932        0.0        0.44        
H_OH        H        0.8984737735031949        0.6146449901460574        0.0        0.44        
H_OH        H        0.9837827045426759        0.09173563727334072        0.0        0.44        
H_OH        H        0.9554547939832294        0.05610979573147303        0.0        0.44        
H_OH        H        0.9576784297503347        0.2057002550397252        0.0        0.44        
H_OH        H        0.9765175886315177        0.17020419819470264        0.0        0.44        
H_OH        H        0.968286275560186        0.3197456186700959        0.0        0.44        
H_OH        H        0.951643721362038        0.2748044961716043        0.0        0.44        
H_OH        H        0.9910887864979706        0.412321021042381        0.0        0.44        
H_OH        H        0.991581832234237        0.37118598021435745        0.0        0.44        
H_OH        H        0.9896336799378063        0.5280280493577145        0.0        0.44        
H_OH        H        0.9826216524335543        0.5001161002880584        0.0        0.44        
H_OH        H        0.9639605369467826        0.6525622615729294        0.0        0.44        
H_OH        H        0.9851413427337669        0.6089291453113306        0.0        0.44        
H_OH        H        0.016971814419933902        0.7008860571143711        0.0        0.44        
H_OH        H        0.13540787025557421        0.7060642234399178        0.0        0.44        
H_OH        H        0.397651745327776        0.688235335266512        0.0        0.44        
H_OH        H        0.7089718716076917        0.6931963445668711        0.0        0.44        
H_OH        H        0.7897816412990153        0.6876584971623664        0.0        0.44        
H_OH        H        0.2922568580937523        0.7612929211756692        0.0        0.44        
H_OH        H        0.9286924931357813        0.7451277149506498        0.0        0.44        
H_OH        H        0.9612888266371385        0.7629084038441758        0.0        0.44        
H_OH        H        0.016872750935602938        0.7750711890045465        0.0        0.44        
H_OH        H        0.12504298518542772        0.7827124092327965        0.0        0.44        
H_OH        H        0.37963268290676955        0.7822251810311068        0.0        0.44        
H_OH        H        0.6674710867178966        0.7705407648679203        0.0        0.44        
H_OH        H        0.7899300984280262        0.7628920570724473        0.0        0.44        
H_OH        H        0.2584111064074107        0.7042739103334937        0.0        0.44        
H_OH        H        0.9233595911910698        0.719244653657318        0.0        0.44        
H_OH        H        0.9694789948333766        0.7271445073278305        0.0        0.44        
H_OH        H        -0.022840757084310426        0.7967830302856546        0.0        0.44        
H_OH        H        0.10782744844948979        0.811765296913403        0.0        0.44        
H_OH        H        0.3621281882656135        0.8156734763381165        0.0        0.44        
H_OH        H        0.6732769563947539        0.8146508133471014        0.0        0.44        
H_OH        H        0.8063576770133521        0.8188868666133015        0.0        0.44        
H_OH        H        0.27638125350588016        0.8747666590505353        0.0        0.44        
H_OH        H        0.8865270793439823        0.8636882919560315        0.0        0.44        
H_OH        H        0.9770894973464251        0.8736870047920335        0.0        0.44        
H_OH        H        -0.009283706247478703        0.8917996590856823        0.0        0.44        
H_OH        H        0.13276407843711463        0.8924275007066927        0.0        0.44        
H_OH        H        0.35763879666230824        0.8856147400923413        0.0        0.44        
H_OH        H        0.7094520946049341        0.8768652378109726        0.0        0.44        
H_OH        H        0.7962864460468794        0.8868930639017653        0.0        0.44        
H_OH        H        0.2788379613391938        0.8381363657128971        0.0        0.44        
H_OH        H        0.9135145168768216        0.8370501379497065        0.0        0.44        
H_OH        H        0.94828062443609        0.8252293012164817        0.0        0.44        
H_OH        H        0.004996087605093186        0.9302937525844048        0.0        0.44        
H_OH        H        0.1450192035179488        0.9187079133592304        0.0        0.44        
H_OH        H        0.37877276638652085        0.9305394322787041        0.0        0.44        
H_OH        H        0.6971381732226235        0.9286720890548591        0.0        0.44        
H_OH        H        0.8293121477606049        0.9232880754881703        0.0        0.44        
H_OH        H        0.29474225706270646        0.9818893954405503        0.0        0.44        
H_OH        H        0.9234122007960283        0.9784433992584682        0.0        0.44        
H_OH        H        0.9908991365967261        0.9687101559552039        0.0        0.44        
H_OH        H        -0.001975556130184056        1.004846596627268        0.0        0.44        
H_OH        H        0.14720674325073183        0.9869888890819439        0.0        0.44        
H_OH        H        0.3968903328576475        0.9881923256400028        0.0        0.44        
H_OH        H        0.6651833372534854        0.98649886686134        0.0        0.44        
H_OH        H        0.7932487617052919        0.9941092377894502        0.0        0.44        
H_OH        H        0.29803833444626726        0.9418316048097001        0.0        0.44        
H_OH        H        0.9163133488269217        0.9469804801510284        0.0        0.44        
H_OH        H        0.9910285858921158        0.9311181287652449        0.0        0.44        
H_OH        H        -0.020938929068727602        0.027899126619064837        0.7473283211678833        0.44        
H_OH        H        -0.018602863782040076        0.10620593834169069        0.7473283211678833        0.44        
H_OH        H        0.022428829612022735        0.13408975608194137        0.7473283211678833        0.44        
H_OH        H        0.014388202023918377        0.2219206371321142        0.7473283211678833        0.44        
H_OH        H        0.009920699577486662        0.26186770472423493        0.7473283211678833        0.44        
H_OH        H        0.020395243245302473        0.3253824604634043        0.7473283211678833        0.44        
H_OH        H        -0.021263113219422168        0.3604291735411879        0.7473283211678833        0.44        
H_OH        H        0.017707731574866502        0.44074372186850164        0.7473283211678833        0.44        
H_OH        H        -0.014818766558783631        0.4808131764437502        0.7473283211678833        0.44        
H_OH        H        -0.017860672621780364        0.5516609992249806        0.7473283211678833        0.44        
H_OH        H        0.01499794181295738        0.5917667591412781        0.7473283211678833        0.44        
H_OH        H        0.014577123403544062        0.6662066571048088        0.7473283211678833        0.44        
H_OH        H        0.11098480567492307        0.03704056068866128        0.7473283211678833        0.44        
H_OH        H        0.10250849588016493        0.0967056688983435        0.7473283211678833        0.44        
H_OH        H        0.14695015945656784        0.13613212674060313        0.7473283211678833        0.44        
H_OH        H        0.1339959080672776        0.2252616356536506        0.7473283211678833        0.44        
H_OH        H        0.14033908654077656        0.2581217661318466        0.7473283211678833        0.44        
H_OH        H        0.11848883496238091        0.3372957317962383        0.7473283211678833        0.44        
H_OH        H        0.1028153425520879        0.3574529036848856        0.7473283211678833        0.44        
H_OH        H        0.13332825716700297        0.44776452572488346        0.7473283211678833        0.44        
H_OH        H        0.10517407746843806        0.4746165217898093        0.7473283211678833        0.44        
H_OH        H        0.13713609973225263        0.556907541873493        0.7473283211678833        0.44        
H_OH        H        0.10245830006260326        0.5778881243810744        0.7473283211678833        0.44        
H_OH        H        0.12697263748675688        0.671513856509243        0.7473283211678833        0.44        
H_OH        H        0.30400224331963155        0.07619382444951213        0.7473283211678833        0.44        
H_OH        H        0.29644737083893813        0.0545484775988392        0.7473283211678833        0.44        
H_OH        H        0.2755485310746806        0.20789634018616637        0.7473283211678833        0.44        
H_OH        H        0.3018442906558842        0.15830046116143545        0.7473283211678833        0.44        
H_OH        H        0.2925599583997173        0.31667474595603357        0.7473283211678833        0.44        
H_OH        H        0.29477291379996134        0.2781623223106132        0.7473283211678833        0.44        
H_OH        H        0.3003456936618796        0.42028272870336925        0.7473283211678833        0.44        
H_OH        H        0.2923575697030808        0.3908647360064291        0.7473283211678833        0.44        
H_OH        H        0.2939929600628238        0.5379850291598318        0.7473283211678833        0.44        
H_OH        H        0.29961512252166855        0.4954309817153804        0.7473283211678833        0.44        
H_OH        H        0.27875675181185466        0.6529433633071315        0.7473283211678833        0.44        
H_OH        H        0.30367127374886305        0.5970916196112741        0.7473283211678833        0.44        
H_OH        H        0.3971107832906064        0.024419749008616355        0.7473283211678833        0.44        
H_OH        H        0.3608783253635957        0.11102812362947617        0.7473283211678833        0.44        
H_OH        H        0.3849020169895484        0.15076593999213184        0.7473283211678833        0.44        
H_OH        H        0.38564170042882084        0.2244566217027924        0.7473283211678833        0.44        
H_OH        H        0.3624255032663073        0.2603221467764868        0.7473283211678833        0.44        
H_OH        H        0.35377016977898723        0.3234786280738145        0.7473283211678833        0.44        
H_OH        H        0.3589494203932944        0.36854191817977267        0.7473283211678833        0.44        
H_OH        H        0.3949905401318605        0.4372782677331329        0.7473283211678833        0.44        
H_OH        H        0.3728202826044969        0.48630945627290467        0.7473283211678833        0.44        
H_OH        H        0.35924042243244325        0.5540166725350116        0.7473283211678833        0.44        
H_OH        H        0.3892497115512674        0.5924069997707658        0.7473283211678833        0.44        
H_OH        H        0.3887627133632143        0.6668680357019595        0.7473283211678833        0.44        
H_OH        H        0.6937827290900631        0.041068134379886025        0.7473283211678833        0.44        
H_OH        H        0.706587890452007        0.10547891810310948        0.7473283211678833        0.44        
H_OH        H        0.6719533236204457        0.14681527785918577        0.7473283211678833        0.44        
H_OH        H        0.6797898348894716        0.22578042253277789        0.7473283211678833        0.44        
H_OH        H        0.7103456425394828        0.2407725057261487        0.7473283211678833        0.44        
H_OH        H        0.7096645079571322        0.32049935705722116        0.7473283211678833        0.44        
H_OH        H        0.6654207388984158        0.3578758616252796        0.7473283211678833        0.44        
H_OH        H        0.7077710916305818        0.4367412942810878        0.7473283211678833        0.44        
H_OH        H        0.6807141234357038        0.48535794373103447        0.7473283211678833        0.44        
H_OH        H        0.6924510926598031        0.5599330558936424        0.7473283211678833        0.44        
H_OH        H        0.7038086549299859        0.5904991283077252        0.7473283211678833        0.44        
H_OH        H        0.6758660415613283        0.6683325955758728        0.7473283211678833        0.44        
H_OH        H        0.8352291744342568        0.020884415722550818        0.7473283211678833        0.44        
H_OH        H        0.8020685134510412        0.1134577981159101        0.7473283211678833        0.44        
H_OH        H        0.8349489357135734        0.13398183388498203        0.7473283211678833        0.44        
H_OH        H        0.8289869806420952        0.2199384047959067        0.7473283211678833        0.44        
H_OH        H        0.7913982510782536        0.24972836117400374        0.7473283211678833        0.44        
H_OH        H        0.8323467857363197        0.32643103392196915        0.7473283211678833        0.44        
H_OH        H        0.7900541538261902        0.35622059711358006        0.7473283211678833        0.44        
H_OH        H        0.7992530026626065        0.44503311582756405        0.7473283211678833        0.44        
H_OH        H        0.8242234338872344        0.48309296040303        0.7473283211678833        0.44        
H_OH        H        0.8352228713892972        0.5394653994726895        0.7473283211678833        0.44        
H_OH        H        0.8348106753091339        0.5791208495563543        0.7473283211678833        0.44        
H_OH        H        0.7953457325791083        0.6636376638109993        0.7473283211678833        0.44        
H_OH        H        0.8845440233863392        0.0813902224500648        0.7473283211678833        0.44        
H_OH        H        0.890353850761062        0.053881966919693464        0.7473283211678833        0.44        
H_OH        H        0.8947106390997456        0.205426744705049        0.7473283211678833        0.44        
H_OH        H        0.9098151020438682        0.1713141203202639        0.7473283211678833        0.44        
H_OH        H        0.8996968703037396        0.31876487717245383        0.7473283211678833        0.44        
H_OH        H        0.916038671522832        0.28045051108058516        0.7473283211678833        0.44        
H_OH        H        0.9244400195877291        0.421597715062316        0.7473283211678833        0.44        
H_OH        H        0.8871148514053719        0.3831828418925347        0.7473283211678833        0.44        
H_OH        H        0.8834081577373627        0.5189479275660253        0.7473283211678833        0.44        
H_OH        H        0.9195666439087679        0.5005380269432296        0.7473283211678833        0.44        
H_OH        H        0.9029713357347827        0.6528406685813108        0.7473283211678833        0.44        
H_OH        H        0.9134369433372951        0.6148546890631778        0.7473283211678833        0.44        
H_OH        H        0.9913793933970938        0.0772944931066523        0.7473283211678833        0.44        
H_OH        H        0.9871103826746425        0.05099355575189967        0.7473283211678833        0.44        
H_OH        H        0.9508715139570868        0.1997860407779432        0.7473283211678833        0.44        
H_OH        H        0.9615353267663721        0.17040123431281945        0.7473283211678833        0.44        
H_OH        H        0.9678556962815116        0.3197324742223109        0.7473283211678833        0.44        
H_OH        H        0.9478674654628572        0.2687707000595749        0.7473283211678833        0.44        
H_OH        H        0.99133517145333        0.41093963069719064        0.7473283211678833        0.44        
H_OH        H        0.9881417957478249        0.3827695151256306        0.7473283211678833        0.44        
H_OH        H        0.9766965707343753        0.5405078991114679        0.7473283211678833        0.44        
H_OH        H        0.9642374518221168        0.5044723759105693        0.7473283211678833        0.44        
H_OH        H        0.9903215355265889        0.6373529821267079        0.7473283211678833        0.44        
H_OH        H        0.9855034486001565        0.6085373221626283        0.7473283211678833        0.44        
H_OH        H        0.019730456159140757        0.6970090485479262        0.7473283211678833        0.44        
H_OH        H        0.13543402846007746        0.7060504586107983        0.7473283211678833        0.44        
H_OH        H        0.3905264809042789        0.7023905094820457        0.7473283211678833        0.44        
H_OH        H        0.6713067918008465        0.701730078385659        0.7473283211678833        0.44        
H_OH        H        0.8187280970580607        0.7077511014671957        0.7473283211678833        0.44        
H_OH        H        0.2584415477316337        0.7420790672504778        0.7473283211678833        0.44        
H_OH        H        0.8839038053608199        0.7456183861016635        0.7473283211678833        0.44        
H_OH        H        0.9566481993833198        0.7606335763859087        0.7473283211678833        0.44        
H_OH        H        0.016872636367041435        0.7750713178479172        0.7473283211678833        0.44        
H_OH        H        0.12911202135498956        0.7823294135916277        0.7473283211678833        0.44        
H_OH        H        0.39466833931373785        0.7711906283812552        0.7473283211678833        0.44        
H_OH        H        0.6786932119478024        0.7808997750321939        0.7473283211678833        0.44        
H_OH        H        0.8353141269847698        0.7604908969910734        0.7473283211678833        0.44        
H_OH        H        0.26226620721159444        0.7167509695577958        0.7473283211678833        0.44        
H_OH        H        0.8939784277985042        0.7234856588239975        0.7473283211678833        0.44        
H_OH        H        0.9912848929181736        0.7075582948252515        0.7473283211678833        0.44        
H_OH        H        0.01606712782460755        0.8129701287469665        0.7473283211678833        0.44        
H_OH        H        0.1378662632387503        0.8156773597097781        0.7473283211678833        0.44        
H_OH        H        0.395521234803654        0.8066041890553335        0.7473283211678833        0.44        
H_OH        H        0.6915274150803848        0.8193831378263398        0.7473283211678833        0.44        
H_OH        H        0.8353402986344978        0.7968052293207822        0.7473283211678833        0.44        
H_OH        H        0.28802308331774334        0.8742510249844829        0.7473283211678833        0.44        
H_OH        H        0.9147536820767427        0.8736201635126183        0.7473283211678833        0.44        
H_OH        H        0.9676590187606195        0.8752786928746497        0.7473283211678833        0.44        
H_OH        H        0.014509697235774303        0.8884857955900651        0.7473283211678833        0.44        
H_OH        H        0.12726439371185738        0.8937079609305373        0.7473283211678833        0.44        
H_OH        H        0.3946283614668706        0.8823708106009651        0.7473283211678833        0.44        
H_OH        H        0.6648139509438383        0.873137550752488        0.7473283211678833        0.44        
H_OH        H        0.7903361140819244        0.8760569126794147        0.7473283211678833        0.44        
H_OH        H        0.2751809578944018        0.8374247315311237        0.7473283211678833        0.44        
H_OH        H        0.8924956726392724        0.8335405302760974        0.7473283211678833        0.44        
H_OH        H        0.9771281580645949        0.8366334012510749        0.7473283211678833        0.44        
H_OH        H        -0.008022511754854961        0.9293678176547716        0.7473283211678833        0.44        
H_OH        H        0.10435153630633669        0.9174438238808601        0.7473283211678833        0.44        
H_OH        H        0.39779953764399734        0.9088976050130667        0.7473283211678833        0.44        
H_OH        H        0.6783205435729999        0.9288849375440574        0.7473283211678833        0.44        
H_OH        H        0.8316237576319282        0.9202387529008851        0.7473283211678833        0.44        
H_OH        H        0.2591240999714515        0.9688037251406015        0.7473283211678833        0.44        
H_OH        H        0.889797059863477        0.9792347582302321        0.7473283211678833        0.44        
H_OH        H        0.9914644809433494        0.965472764636756        0.7473283211678833        0.44        
H_OH        H        -0.017622257294286764        0.9964067207117553        0.7473283211678833        0.44        
H_OH        H        0.10464616384000734        0.9921322672301283        0.7473283211678833        0.44        
H_OH        H        0.3569661261159542        0.9958792352518493        0.7473283211678833        0.44        
H_OH        H        0.710017262533866        0.9854433742508564        0.7473283211678833        0.44        
H_OH        H        0.8348240388154207        0.9864641678577454        0.7473283211678833        0.44        
H_OH        H        0.3039380914518659        0.9286748488549476        0.7473283211678833        0.44        
H_OH        H        0.8880602083758834        0.9401150230430507        0.7473283211678833        0.44        
H_OH        H        0.9612310457717678        0.948071818298374        0.7473283211678833        0.44        
