data_graphite_ortho

_audit_creation_method RASPA-1.0
_audit_creation_date 2012-2-3
_audit_author_name 'David Dubbeldam'

_cell_length_a    29.52    
_cell_length_b    38.34    
_cell_length_c    22.2    
_cell_angle_alpha 90
_cell_angle_beta  90
_cell_angle_gamma 90
_cell_volume      25125.89      

_symmetry_cell_setting          triclinic
_symmetry_space_group_name_Hall 'P 1'
_symmetry_space_group_name_H-M  'P 1'
_symmetry_Int_Tables_number     1

_symmetry_equiv_pos_as_xyz 'x,y,z'

loop_
_atom_site_label
_atom_site_type_symbol
_atom_site_fract_x
_atom_site_fract_y
_atom_site_fract_z
_atom_site_charge
C1        C        0.0        0.018519        0.07969364864864865        0        
C2        C        0.041667        0.074075        0.07969364864864865        0        
C3        C        0.0        0.092592        0.07969364864864865        0        
C4        C        0.041667        0.037037        0.07969364864864865        0        
C1        C        0.0        0.12963        0.07969364864864865        0        
C2        C        0.041667        0.185185        0.07969364864864865        0        
C3        C        0.0        0.203703        0.07969364864864865        0        
C4        C        0.041667        0.148148        0.07969364864864865        0        
C1        C        0.0        0.24074099999999998        0.07969364864864865        0        
C2        C        0.041667        0.296297        0.07969364864864865        0        
C3        C        0.0        0.314815        0.07969364864864865        0        
C4        C        0.041667        0.259259        0.07969364864864865        0        
C1        C        0.0        0.351852        0.07969364864864865        0        
C2        C        0.041667        0.407408        0.07969364864864865        0        
C3        C        0.0        0.42592500000000005        0.07969364864864865        0        
C4        C        0.041667        0.37037        0.07969364864864865        0        
C1        C        0.0        0.46296300000000007        0.07969364864864865        0        
C2        C        0.041667        0.518519        0.07969364864864865        0        
C3        C        0.0        0.537037        0.07969364864864865        0        
C4        C        0.041667        0.481481        0.07969364864864865        0        
C1        C        0.0        0.574075        0.07969364864864865        0        
C2        C        0.041667        0.62963        0.07969364864864865        0        
C3        C        0.0        0.648148        0.07969364864864865        0        
C4        C        0.041667        0.592592        0.07969364864864865        0        
C1        C        0.083333        0.018519        0.07969364864864865        0        
C2        C        0.125        0.074075        0.07969364864864865        0        
C3        C        0.083333        0.092592        0.07969364864864865        0        
C4        C        0.125        0.037037        0.07969364864864865        0        
C1        C        0.083333        0.12963        0.07969364864864865        0        
C2        C        0.125        0.185185        0.07969364864864865        0        
C3        C        0.083333        0.203703        0.07969364864864865        0        
C4        C        0.125        0.148148        0.07969364864864865        0        
C1        C        0.083333        0.24074099999999998        0.07969364864864865        0        
C2        C        0.125        0.296297        0.07969364864864865        0        
C3        C        0.083333        0.314815        0.07969364864864865        0        
C4        C        0.125        0.259259        0.07969364864864865        0        
C1        C        0.083333        0.351852        0.07969364864864865        0        
C2        C        0.125        0.407408        0.07969364864864865        0        
C3        C        0.083333        0.42592500000000005        0.07969364864864865        0        
C4        C        0.125        0.37037        0.07969364864864865        0        
C1        C        0.083333        0.46296300000000007        0.07969364864864865        0        
C2        C        0.125        0.518519        0.07969364864864865        0        
C3        C        0.083333        0.537037        0.07969364864864865        0        
C4        C        0.125        0.481481        0.07969364864864865        0        
C1        C        0.083333        0.574075        0.07969364864864865        0        
C2        C        0.125        0.62963        0.07969364864864865        0        
C3        C        0.083333        0.648148        0.07969364864864865        0        
C4        C        0.125        0.592592        0.07969364864864865        0        
C1        C        0.166667        0.018519        0.07969364864864865        0        
C2        C        0.208333        0.074075        0.07969364864864865        0        
C3        C        0.166667        0.092592        0.07969364864864865        0        
C4        C        0.208333        0.037037        0.07969364864864865        0        
C1        C        0.166667        0.12963        0.07969364864864865        0        
C2        C        0.208333        0.185185        0.07969364864864865        0        
C3        C        0.166667        0.203703        0.07969364864864865        0        
C4        C        0.208333        0.148148        0.07969364864864865        0        
C1        C        0.166667        0.24074099999999998        0.07969364864864865        0        
C2        C        0.208333        0.296297        0.07969364864864865        0        
C3        C        0.166667        0.314815        0.07969364864864865        0        
C4        C        0.208333        0.259259        0.07969364864864865        0        
C1        C        0.166667        0.351852        0.07969364864864865        0        
C2        C        0.208333        0.407408        0.07969364864864865        0        
C3        C        0.166667        0.42592500000000005        0.07969364864864865        0        
C4        C        0.208333        0.37037        0.07969364864864865        0        
C1        C        0.166667        0.46296300000000007        0.07969364864864865        0        
C2        C        0.208333        0.518519        0.07969364864864865        0        
C3        C        0.166667        0.537037        0.07969364864864865        0        
C4        C        0.208333        0.481481        0.07969364864864865        0        
C1        C        0.166667        0.574075        0.07969364864864865        0        
C2        C        0.208333        0.62963        0.07969364864864865        0        
C3        C        0.166667        0.648148        0.07969364864864865        0        
C4        C        0.208333        0.592592        0.07969364864864865        0        
C1        C        0.25        0.018519        0.07969364864864865        0        
C2        C        0.291667        0.074075        0.07969364864864865        0        
C3        C        0.25        0.092592        0.07969364864864865        0        
C4        C        0.291667        0.037037        0.07969364864864865        0        
C1        C        0.25        0.12963        0.07969364864864865        0        
C2        C        0.291667        0.185185        0.07969364864864865        0        
C3        C        0.25        0.203703        0.07969364864864865        0        
C4        C        0.291667        0.148148        0.07969364864864865        0        
C1        C        0.25        0.24074099999999998        0.07969364864864865        0        
C2        C        0.291667        0.296297        0.07969364864864865        0        
C3        C        0.25        0.314815        0.07969364864864865        0        
C4        C        0.291667        0.259259        0.07969364864864865        0        
C1        C        0.25        0.351852        0.07969364864864865        0        
C2        C        0.291667        0.407408        0.07969364864864865        0        
C3        C        0.25        0.42592500000000005        0.07969364864864865        0        
C4        C        0.291667        0.37037        0.07969364864864865        0        
C1        C        0.25        0.46296300000000007        0.07969364864864865        0        
C2        C        0.291667        0.518519        0.07969364864864865        0        
C3        C        0.25        0.537037        0.07969364864864865        0        
C4        C        0.291667        0.481481        0.07969364864864865        0        
C1        C        0.25        0.574075        0.07969364864864865        0        
C2        C        0.291667        0.62963        0.07969364864864865        0        
C3        C        0.25        0.648148        0.07969364864864865        0        
C4        C        0.291667        0.592592        0.07969364864864865        0        
C1        C        0.333333        0.018519        0.07969364864864865        0        
C2        C        0.375        0.074075        0.07969364864864865        0        
C3        C        0.333333        0.092592        0.07969364864864865        0        
C4        C        0.375        0.037037        0.07969364864864865        0        
C1        C        0.333333        0.12963        0.07969364864864865        0        
C2        C        0.375        0.185185        0.07969364864864865        0        
C3        C        0.333333        0.203703        0.07969364864864865        0        
C4        C        0.375        0.148148        0.07969364864864865        0        
C1        C        0.333333        0.24074099999999998        0.07969364864864865        0        
C2        C        0.375        0.296297        0.07969364864864865        0        
C3        C        0.333333        0.314815        0.07969364864864865        0        
C4        C        0.375        0.259259        0.07969364864864865        0        
C1        C        0.333333        0.351852        0.07969364864864865        0        
C2        C        0.375        0.407408        0.07969364864864865        0        
C3        C        0.333333        0.42592500000000005        0.07969364864864865        0        
C4        C        0.375        0.37037        0.07969364864864865        0        
C1        C        0.333333        0.46296300000000007        0.07969364864864865        0        
C2        C        0.375        0.518519        0.07969364864864865        0        
C3        C        0.333333        0.537037        0.07969364864864865        0        
C4        C        0.375        0.481481        0.07969364864864865        0        
C1        C        0.333333        0.574075        0.07969364864864865        0        
C2        C        0.375        0.62963        0.07969364864864865        0        
C3        C        0.333333        0.648148        0.07969364864864865        0        
C4        C        0.375        0.592592        0.07969364864864865        0        
C1        C        0.416667        0.018519        0.07969364864864865        0        
C2        C        0.458333        0.074075        0.07969364864864865        0        
C3        C        0.416667        0.092592        0.07969364864864865        0        
C4        C        0.458333        0.037037        0.07969364864864865        0        
C1        C        0.416667        0.12963        0.07969364864864865        0        
C2        C        0.458333        0.185185        0.07969364864864865        0        
C3        C        0.416667        0.203703        0.07969364864864865        0        
C4        C        0.458333        0.148148        0.07969364864864865        0        
C1        C        0.416667        0.24074099999999998        0.07969364864864865        0        
C2        C        0.458333        0.296297        0.07969364864864865        0        
C3        C        0.416667        0.314815        0.07969364864864865        0        
C4        C        0.458333        0.259259        0.07969364864864865        0        
C1        C        0.416667        0.351852        0.07969364864864865        0        
C2        C        0.458333        0.407408        0.07969364864864865        0        
C3        C        0.416667        0.42592500000000005        0.07969364864864865        0        
C4        C        0.458333        0.37037        0.07969364864864865        0        
C1        C        0.416667        0.46296300000000007        0.07969364864864865        0        
C2        C        0.458333        0.518519        0.07969364864864865        0        
C3        C        0.416667        0.537037        0.07969364864864865        0        
C4        C        0.458333        0.481481        0.07969364864864865        0        
C1        C        0.416667        0.574075        0.07969364864864865        0        
C2        C        0.458333        0.62963        0.07969364864864865        0        
C3        C        0.416667        0.648148        0.07969364864864865        0        
C4        C        0.458333        0.592592        0.07969364864864865        0        
C1        C        0.5        0.018519        0.07969364864864865        0        
C2        C        0.541667        0.074075        0.07969364864864865        0        
C3        C        0.5        0.092592        0.07969364864864865        0        
C4        C        0.541667        0.037037        0.07969364864864865        0        
C1        C        0.5        0.12963        0.07969364864864865        0        
C2        C        0.541667        0.185185        0.07969364864864865        0        
C3        C        0.5        0.203703        0.07969364864864865        0        
C4        C        0.541667        0.148148        0.07969364864864865        0        
C1        C        0.5        0.24074099999999998        0.07969364864864865        0        
C2        C        0.541667        0.296297        0.07969364864864865        0        
C3        C        0.5        0.314815        0.07969364864864865        0        
C4        C        0.541667        0.259259        0.07969364864864865        0        
C1        C        0.5        0.351852        0.07969364864864865        0        
C2        C        0.541667        0.407408        0.07969364864864865        0        
C3        C        0.5        0.42592500000000005        0.07969364864864865        0        
C4        C        0.541667        0.37037        0.07969364864864865        0        
C1        C        0.5        0.46296300000000007        0.07969364864864865        0        
C2        C        0.541667        0.518519        0.07969364864864865        0        
C3        C        0.5        0.537037        0.07969364864864865        0        
C4        C        0.541667        0.481481        0.07969364864864865        0        
C1        C        0.5        0.574075        0.07969364864864865        0        
C2        C        0.541667        0.62963        0.07969364864864865        0        
C3        C        0.5        0.648148        0.07969364864864865        0        
C4        C        0.541667        0.592592        0.07969364864864865        0        
C1        C        0.583333        0.018519        0.07969364864864865        0        
C2        C        0.625        0.074075        0.07969364864864865        0        
C3        C        0.583333        0.092592        0.07969364864864865        0        
C4        C        0.625        0.037037        0.07969364864864865        0        
C1        C        0.583333        0.12963        0.07969364864864865        0        
C2        C        0.625        0.185185        0.07969364864864865        0        
C3        C        0.583333        0.203703        0.07969364864864865        0        
C4        C        0.625        0.148148        0.07969364864864865        0        
C1        C        0.583333        0.24074099999999998        0.07969364864864865        0        
C2        C        0.625        0.296297        0.07969364864864865        0        
C3        C        0.583333        0.314815        0.07969364864864865        0        
C4        C        0.625        0.259259        0.07969364864864865        0        
C1        C        0.583333        0.351852        0.07969364864864865        0        
C2        C        0.625        0.407408        0.07969364864864865        0        
C3        C        0.583333        0.42592500000000005        0.07969364864864865        0        
C4        C        0.625        0.37037        0.07969364864864865        0        
C1        C        0.583333        0.46296300000000007        0.07969364864864865        0        
C2        C        0.625        0.518519        0.07969364864864865        0        
C3        C        0.583333        0.537037        0.07969364864864865        0        
C4        C        0.625        0.481481        0.07969364864864865        0        
C1        C        0.583333        0.574075        0.07969364864864865        0        
C2        C        0.625        0.62963        0.07969364864864865        0        
C3        C        0.583333        0.648148        0.07969364864864865        0        
C4        C        0.625        0.592592        0.07969364864864865        0        
C1        C        0.666667        0.018519        0.07969364864864865        0        
C2        C        0.708333        0.074075        0.07969364864864865        0        
C3        C        0.666667        0.092592        0.07969364864864865        0        
C4        C        0.708333        0.037037        0.07969364864864865        0        
C1        C        0.666667        0.12963        0.07969364864864865        0        
C2        C        0.708333        0.185185        0.07969364864864865        0        
C3        C        0.666667        0.203703        0.07969364864864865        0        
C4        C        0.708333        0.148148        0.07969364864864865        0        
C1        C        0.666667        0.24074099999999998        0.07969364864864865        0        
C2        C        0.708333        0.296297        0.07969364864864865        0        
C3        C        0.666667        0.314815        0.07969364864864865        0        
C4        C        0.708333        0.259259        0.07969364864864865        0        
C1        C        0.666667        0.351852        0.07969364864864865        0        
C2        C        0.708333        0.407408        0.07969364864864865        0        
C3        C        0.666667        0.42592500000000005        0.07969364864864865        0        
C4        C        0.708333        0.37037        0.07969364864864865        0        
C1        C        0.666667        0.46296300000000007        0.07969364864864865        0        
C2        C        0.708333        0.518519        0.07969364864864865        0        
C3        C        0.666667        0.537037        0.07969364864864865        0        
C4        C        0.708333        0.481481        0.07969364864864865        0        
C1        C        0.666667        0.574075        0.07969364864864865        0        
C2        C        0.708333        0.62963        0.07969364864864865        0        
C3        C        0.666667        0.648148        0.07969364864864865        0        
C4        C        0.708333        0.592592        0.07969364864864865        0        
C_FG        C        0.75        0.018519        0.07969364864864865        0.2        
C2        C        0.7916670000000001        0.074075        0.07969364864864865        0        
C3        C        0.75        0.092592        0.07969364864864865        0        
C4        C        0.7916670000000001        0.037037        0.07969364864864865        0        
C_FG        C        0.75        0.12963        0.07969364864864865        0.2        
C2        C        0.7916670000000001        0.185185        0.07969364864864865        0        
C3        C        0.75        0.203703        0.07969364864864865        0        
C4        C        0.7916670000000001        0.148148        0.07969364864864865        0        
C_FG        C        0.75        0.24074099999999998        0.07969364864864865        0.2        
C2        C        0.7916670000000001        0.296297        0.07969364864864865        0        
C3        C        0.75        0.314815        0.07969364864864865        0        
C4        C        0.7916670000000001        0.259259        0.07969364864864865        0        
C_FG        C        0.75        0.351852        0.07969364864864865        0.2        
C2        C        0.7916670000000001        0.407408        0.07969364864864865        0        
C3        C        0.75        0.42592500000000005        0.07969364864864865        0        
C4        C        0.7916670000000001        0.37037        0.07969364864864865        0        
C_FG        C        0.75        0.46296300000000007        0.07969364864864865        0.2        
C2        C        0.7916670000000001        0.518519        0.07969364864864865        0        
C3        C        0.75        0.537037        0.07969364864864865        0        
C4        C        0.7916670000000001        0.481481        0.07969364864864865        0        
C_FG        C        0.75        0.574075        0.07969364864864865        0.2        
C2        C        0.7916670000000001        0.62963        0.07969364864864865        0        
C3        C        0.75        0.648148        0.07969364864864865        0        
C4        C        0.7916670000000001        0.592592        0.07969364864864865        0        
C1        C        0.833333        0.018519        0.07969364864864865        0        
C2        C        0.875        0.074075        0.07969364864864865        0        
C3        C        0.833333        0.092592        0.07969364864864865        0        
C4        C        0.875        0.037037        0.07969364864864865        0        
C1        C        0.833333        0.12963        0.07969364864864865        0        
C2        C        0.875        0.185185        0.07969364864864865        0        
C3        C        0.833333        0.203703        0.07969364864864865        0        
C4        C        0.875        0.148148        0.07969364864864865        0        
C1        C        0.833333        0.24074099999999998        0.07969364864864865        0        
C2        C        0.875        0.296297        0.07969364864864865        0        
C3        C        0.833333        0.314815        0.07969364864864865        0        
C4        C        0.875        0.259259        0.07969364864864865        0        
C1        C        0.833333        0.351852        0.07969364864864865        0        
C2        C        0.875        0.407408        0.07969364864864865        0        
C3        C        0.833333        0.42592500000000005        0.07969364864864865        0        
C4        C        0.875        0.37037        0.07969364864864865        0        
C1        C        0.833333        0.46296300000000007        0.07969364864864865        0        
C2        C        0.875        0.518519        0.07969364864864865        0        
C3        C        0.833333        0.537037        0.07969364864864865        0        
C4        C        0.875        0.481481        0.07969364864864865        0        
C1        C        0.833333        0.574075        0.07969364864864865        0        
C2        C        0.875        0.62963        0.07969364864864865        0        
C3        C        0.833333        0.648148        0.07969364864864865        0        
C4        C        0.875        0.592592        0.07969364864864865        0        
C_FG        C        0.916667        0.018519        0.07969364864864865        0.2        
C2        C        0.958333        0.074075        0.07969364864864865        0        
C3        C        0.916667        0.092592        0.07969364864864865        0        
C4        C        0.958333        0.037037        0.07969364864864865        0        
C_FG        C        0.916667        0.12963        0.07969364864864865        0.2        
C2        C        0.958333        0.185185        0.07969364864864865        0        
C3        C        0.916667        0.203703        0.07969364864864865        0        
C4        C        0.958333        0.148148        0.07969364864864865        0        
C_FG        C        0.916667        0.24074099999999998        0.07969364864864865        0.2        
C2        C        0.958333        0.296297        0.07969364864864865        0        
C3        C        0.916667        0.314815        0.07969364864864865        0        
C4        C        0.958333        0.259259        0.07969364864864865        0        
C_FG        C        0.916667        0.351852        0.07969364864864865        0.2        
C2        C        0.958333        0.407408        0.07969364864864865        0        
C3        C        0.916667        0.42592500000000005        0.07969364864864865        0        
C4        C        0.958333        0.37037        0.07969364864864865        0        
C_FG        C        0.916667        0.46296300000000007        0.07969364864864865        0.2        
C2        C        0.958333        0.518519        0.07969364864864865        0        
C3        C        0.916667        0.537037        0.07969364864864865        0        
C4        C        0.958333        0.481481        0.07969364864864865        0        
C_FG        C        0.916667        0.574075        0.07969364864864865        0.2        
C2        C        0.958333        0.62963        0.07969364864864865        0        
C3        C        0.916667        0.648148        0.07969364864864865        0        
C4        C        0.958333        0.592592        0.07969364864864865        0        
C1        C        0.0        0.685186        0.07969364864864865        0        
C1        C        0.083333        0.685186        0.07969364864864865        0        
C1        C        0.166667        0.685186        0.07969364864864865        0        
C1        C        0.25        0.685186        0.07969364864864865        0        
C1        C        0.333333        0.685186        0.07969364864864865        0        
C1        C        0.416667        0.685186        0.07969364864864865        0        
C1        C        0.5        0.685186        0.07969364864864865        0        
C1        C        0.583333        0.685186        0.07969364864864865        0        
C1        C        0.666667        0.685186        0.07969364864864865        0        
C_FG        C        0.75        0.685186        0.07969364864864865        0.2        
C1        C        0.833333        0.685186        0.07969364864864865        0        
C_FG        C        0.916667        0.685186        0.07969364864864865        0.2        
C2        C        0.041667        0.740741        0.07969364864864865        0        
C2        C        0.125        0.740741        0.07969364864864865        0        
C2        C        0.208333        0.740741        0.07969364864864865        0        
C2        C        0.291667        0.740741        0.07969364864864865        0        
C2        C        0.375        0.740741        0.07969364864864865        0        
C2        C        0.458333        0.740741        0.07969364864864865        0        
C2        C        0.541667        0.740741        0.07969364864864865        0        
C2        C        0.625        0.740741        0.07969364864864865        0        
C2        C        0.708333        0.740741        0.07969364864864865        0        
C2        C        0.7916670000000001        0.740741        0.07969364864864865        0        
C2        C        0.875        0.740741        0.07969364864864865        0        
C2        C        0.958333        0.740741        0.07969364864864865        0        
C3        C        0.0        0.759259        0.07969364864864865        0        
C3        C        0.083333        0.759259        0.07969364864864865        0        
C3        C        0.166667        0.759259        0.07969364864864865        0        
C3        C        0.25        0.759259        0.07969364864864865        0        
C3        C        0.333333        0.759259        0.07969364864864865        0        
C3        C        0.416667        0.759259        0.07969364864864865        0        
C3        C        0.5        0.759259        0.07969364864864865        0        
C3        C        0.583333        0.759259        0.07969364864864865        0        
C3        C        0.666667        0.759259        0.07969364864864865        0        
C3        C        0.75        0.759259        0.07969364864864865        0        
C3        C        0.833333        0.759259        0.07969364864864865        0        
C3        C        0.916667        0.759259        0.07969364864864865        0        
C4        C        0.041667        0.703703        0.07969364864864865        0        
C4        C        0.125        0.703703        0.07969364864864865        0        
C4        C        0.208333        0.703703        0.07969364864864865        0        
C4        C        0.291667        0.703703        0.07969364864864865        0        
C4        C        0.375        0.703703        0.07969364864864865        0        
C4        C        0.458333        0.703703        0.07969364864864865        0        
C4        C        0.541667        0.703703        0.07969364864864865        0        
C4        C        0.625        0.703703        0.07969364864864865        0        
C4        C        0.708333        0.703703        0.07969364864864865        0        
C4        C        0.7916670000000001        0.703703        0.07969364864864865        0        
C4        C        0.875        0.703703        0.07969364864864865        0        
C4        C        0.958333        0.703703        0.07969364864864865        0        
C1        C        0.0        0.796297        0.07969364864864865        0        
C1        C        0.083333        0.796297        0.07969364864864865        0        
C1        C        0.166667        0.796297        0.07969364864864865        0        
C1        C        0.25        0.796297        0.07969364864864865        0        
C1        C        0.333333        0.796297        0.07969364864864865        0        
C1        C        0.416667        0.796297        0.07969364864864865        0        
C1        C        0.5        0.796297        0.07969364864864865        0        
C1        C        0.583333        0.796297        0.07969364864864865        0        
C1        C        0.666667        0.796297        0.07969364864864865        0        
C_FG        C        0.75        0.796297        0.07969364864864865        0.2        
C1        C        0.833333        0.796297        0.07969364864864865        0        
C_FG        C        0.916667        0.796297        0.07969364864864865        0.2        
C2        C        0.041667        0.851852        0.07969364864864865        0        
C2        C        0.125        0.851852        0.07969364864864865        0        
C2        C        0.208333        0.851852        0.07969364864864865        0        
C2        C        0.291667        0.851852        0.07969364864864865        0        
C2        C        0.375        0.851852        0.07969364864864865        0        
C2        C        0.458333        0.851852        0.07969364864864865        0        
C2        C        0.541667        0.851852        0.07969364864864865        0        
C2        C        0.625        0.851852        0.07969364864864865        0        
C2        C        0.708333        0.851852        0.07969364864864865        0        
C2        C        0.7916670000000001        0.851852        0.07969364864864865        0        
C2        C        0.875        0.851852        0.07969364864864865        0        
C2        C        0.958333        0.851852        0.07969364864864865        0        
C3        C        0.0        0.87037        0.07969364864864865        0        
C3        C        0.083333        0.87037        0.07969364864864865        0        
C3        C        0.166667        0.87037        0.07969364864864865        0        
C3        C        0.25        0.87037        0.07969364864864865        0        
C3        C        0.333333        0.87037        0.07969364864864865        0        
C3        C        0.416667        0.87037        0.07969364864864865        0        
C3        C        0.5        0.87037        0.07969364864864865        0        
C3        C        0.583333        0.87037        0.07969364864864865        0        
C3        C        0.666667        0.87037        0.07969364864864865        0        
C3        C        0.75        0.87037        0.07969364864864865        0        
C3        C        0.833333        0.87037        0.07969364864864865        0        
C3        C        0.916667        0.87037        0.07969364864864865        0        
C4        C        0.041667        0.814814        0.07969364864864865        0        
C4        C        0.125        0.814814        0.07969364864864865        0        
C4        C        0.208333        0.814814        0.07969364864864865        0        
C4        C        0.291667        0.814814        0.07969364864864865        0        
C4        C        0.375        0.814814        0.07969364864864865        0        
C4        C        0.458333        0.814814        0.07969364864864865        0        
C4        C        0.541667        0.814814        0.07969364864864865        0        
C4        C        0.625        0.814814        0.07969364864864865        0        
C4        C        0.708333        0.814814        0.07969364864864865        0        
C4        C        0.7916670000000001        0.814814        0.07969364864864865        0        
C4        C        0.875        0.814814        0.07969364864864865        0        
C4        C        0.958333        0.814814        0.07969364864864865        0        
C1        C        0.0        0.907408        0.07969364864864865        0        
C1        C        0.083333        0.907408        0.07969364864864865        0        
C1        C        0.166667        0.907408        0.07969364864864865        0        
C1        C        0.25        0.907408        0.07969364864864865        0        
C1        C        0.333333        0.907408        0.07969364864864865        0        
C1        C        0.416667        0.907408        0.07969364864864865        0        
C1        C        0.5        0.907408        0.07969364864864865        0        
C1        C        0.583333        0.907408        0.07969364864864865        0        
C1        C        0.666667        0.907408        0.07969364864864865        0        
C_FG        C        0.75        0.907408        0.07969364864864865        0.2        
C1        C        0.833333        0.907408        0.07969364864864865        0        
C_FG        C        0.916667        0.907408        0.07969364864864865        0.2        
C2        C        0.041667        0.962963        0.07969364864864865        0        
C2        C        0.125        0.962963        0.07969364864864865        0        
C2        C        0.208333        0.962963        0.07969364864864865        0        
C2        C        0.291667        0.962963        0.07969364864864865        0        
C2        C        0.375        0.962963        0.07969364864864865        0        
C2        C        0.458333        0.962963        0.07969364864864865        0        
C2        C        0.541667        0.962963        0.07969364864864865        0        
C2        C        0.625        0.962963        0.07969364864864865        0        
C2        C        0.708333        0.962963        0.07969364864864865        0        
C2        C        0.7916670000000001        0.962963        0.07969364864864865        0        
C2        C        0.875        0.962963        0.07969364864864865        0        
C2        C        0.958333        0.962963        0.07969364864864865        0        
C3        C        0.0        0.9814809999999999        0.07969364864864865        0        
C3        C        0.083333        0.9814809999999999        0.07969364864864865        0        
C3        C        0.166667        0.9814809999999999        0.07969364864864865        0        
C3        C        0.25        0.9814809999999999        0.07969364864864865        0        
C3        C        0.333333        0.9814809999999999        0.07969364864864865        0        
C3        C        0.416667        0.9814809999999999        0.07969364864864865        0        
C3        C        0.5        0.9814809999999999        0.07969364864864865        0        
C3        C        0.583333        0.9814809999999999        0.07969364864864865        0        
C3        C        0.666667        0.9814809999999999        0.07969364864864865        0        
C3        C        0.75        0.9814809999999999        0.07969364864864865        0        
C3        C        0.833333        0.9814809999999999        0.07969364864864865        0        
C3        C        0.916667        0.9814809999999999        0.07969364864864865        0        
C4        C        0.041667        0.925925        0.07969364864864865        0        
C4        C        0.125        0.925925        0.07969364864864865        0        
C4        C        0.208333        0.925925        0.07969364864864865        0        
C4        C        0.291667        0.925925        0.07969364864864865        0        
C4        C        0.375        0.925925        0.07969364864864865        0        
C4        C        0.458333        0.925925        0.07969364864864865        0        
C4        C        0.541667        0.925925        0.07969364864864865        0        
C4        C        0.625        0.925925        0.07969364864864865        0        
C4        C        0.708333        0.925925        0.07969364864864865        0        
C4        C        0.7916670000000001        0.925925        0.07969364864864865        0        
C4        C        0.875        0.925925        0.07969364864864865        0        
C4        C        0.958333        0.925925        0.07969364864864865        0        
C1        C        0.0        0.018519        0.23059464864864865        0        
C2        C        0.041667        0.074075        0.23059464864864865        0        
C3        C        0.0        0.092592        0.23059464864864865        0        
C4        C        0.041667        0.037037        0.23059464864864865        0        
C1        C        0.0        0.12963        0.23059464864864865        0        
C2        C        0.041667        0.185185        0.23059464864864865        0        
C3        C        0.0        0.203703        0.23059464864864865        0        
C4        C        0.041667        0.148148        0.23059464864864865        0        
C1        C        0.0        0.24074099999999998        0.23059464864864865        0        
C2        C        0.041667        0.296297        0.23059464864864865        0        
C3        C        0.0        0.314815        0.23059464864864865        0        
C4        C        0.041667        0.259259        0.23059464864864865        0        
C1        C        0.0        0.351852        0.23059464864864865        0        
C2        C        0.041667        0.407408        0.23059464864864865        0        
C3        C        0.0        0.42592500000000005        0.23059464864864865        0        
C4        C        0.041667        0.37037        0.23059464864864865        0        
C1        C        0.0        0.46296300000000007        0.23059464864864865        0        
C2        C        0.041667        0.518519        0.23059464864864865        0        
C3        C        0.0        0.537037        0.23059464864864865        0        
C4        C        0.041667        0.481481        0.23059464864864865        0        
C1        C        0.0        0.574075        0.23059464864864865        0        
C2        C        0.041667        0.62963        0.23059464864864865        0        
C3        C        0.0        0.648148        0.23059464864864865        0        
C4        C        0.041667        0.592592        0.23059464864864865        0        
C1        C        0.083333        0.018519        0.23059464864864865        0        
C2        C        0.125        0.074075        0.23059464864864865        0        
C3        C        0.083333        0.092592        0.23059464864864865        0        
C4        C        0.125        0.037037        0.23059464864864865        0        
C1        C        0.083333        0.12963        0.23059464864864865        0        
C2        C        0.125        0.185185        0.23059464864864865        0        
C3        C        0.083333        0.203703        0.23059464864864865        0        
C4        C        0.125        0.148148        0.23059464864864865        0        
C1        C        0.083333        0.24074099999999998        0.23059464864864865        0        
C2        C        0.125        0.296297        0.23059464864864865        0        
C3        C        0.083333        0.314815        0.23059464864864865        0        
C4        C        0.125        0.259259        0.23059464864864865        0        
C1        C        0.083333        0.351852        0.23059464864864865        0        
C2        C        0.125        0.407408        0.23059464864864865        0        
C3        C        0.083333        0.42592500000000005        0.23059464864864865        0        
C4        C        0.125        0.37037        0.23059464864864865        0        
C1        C        0.083333        0.46296300000000007        0.23059464864864865        0        
C2        C        0.125        0.518519        0.23059464864864865        0        
C3        C        0.083333        0.537037        0.23059464864864865        0        
C4        C        0.125        0.481481        0.23059464864864865        0        
C1        C        0.083333        0.574075        0.23059464864864865        0        
C2        C        0.125        0.62963        0.23059464864864865        0        
C3        C        0.083333        0.648148        0.23059464864864865        0        
C4        C        0.125        0.592592        0.23059464864864865        0        
C1        C        0.166667        0.018519        0.23059464864864865        0        
C2        C        0.208333        0.074075        0.23059464864864865        0        
C3        C        0.166667        0.092592        0.23059464864864865        0        
C4        C        0.208333        0.037037        0.23059464864864865        0        
C1        C        0.166667        0.12963        0.23059464864864865        0        
C2        C        0.208333        0.185185        0.23059464864864865        0        
C3        C        0.166667        0.203703        0.23059464864864865        0        
C4        C        0.208333        0.148148        0.23059464864864865        0        
C1        C        0.166667        0.24074099999999998        0.23059464864864865        0        
C2        C        0.208333        0.296297        0.23059464864864865        0        
C3        C        0.166667        0.314815        0.23059464864864865        0        
C4        C        0.208333        0.259259        0.23059464864864865        0        
C1        C        0.166667        0.351852        0.23059464864864865        0        
C2        C        0.208333        0.407408        0.23059464864864865        0        
C3        C        0.166667        0.42592500000000005        0.23059464864864865        0        
C4        C        0.208333        0.37037        0.23059464864864865        0        
C1        C        0.166667        0.46296300000000007        0.23059464864864865        0        
C2        C        0.208333        0.518519        0.23059464864864865        0        
C3        C        0.166667        0.537037        0.23059464864864865        0        
C4        C        0.208333        0.481481        0.23059464864864865        0        
C1        C        0.166667        0.574075        0.23059464864864865        0        
C2        C        0.208333        0.62963        0.23059464864864865        0        
C3        C        0.166667        0.648148        0.23059464864864865        0        
C4        C        0.208333        0.592592        0.23059464864864865        0        
C1        C        0.25        0.018519        0.23059464864864865        0        
C2        C        0.291667        0.074075        0.23059464864864865        0        
C3        C        0.25        0.092592        0.23059464864864865        0        
C4        C        0.291667        0.037037        0.23059464864864865        0        
C1        C        0.25        0.12963        0.23059464864864865        0        
C2        C        0.291667        0.185185        0.23059464864864865        0        
C3        C        0.25        0.203703        0.23059464864864865        0        
C4        C        0.291667        0.148148        0.23059464864864865        0        
C1        C        0.25        0.24074099999999998        0.23059464864864865        0        
C2        C        0.291667        0.296297        0.23059464864864865        0        
C3        C        0.25        0.314815        0.23059464864864865        0        
C4        C        0.291667        0.259259        0.23059464864864865        0        
C1        C        0.25        0.351852        0.23059464864864865        0        
C2        C        0.291667        0.407408        0.23059464864864865        0        
C3        C        0.25        0.42592500000000005        0.23059464864864865        0        
C4        C        0.291667        0.37037        0.23059464864864865        0        
C1        C        0.25        0.46296300000000007        0.23059464864864865        0        
C2        C        0.291667        0.518519        0.23059464864864865        0        
C3        C        0.25        0.537037        0.23059464864864865        0        
C4        C        0.291667        0.481481        0.23059464864864865        0        
C1        C        0.25        0.574075        0.23059464864864865        0        
C2        C        0.291667        0.62963        0.23059464864864865        0        
C3        C        0.25        0.648148        0.23059464864864865        0        
C4        C        0.291667        0.592592        0.23059464864864865        0        
C1        C        0.333333        0.018519        0.23059464864864865        0        
C2        C        0.375        0.074075        0.23059464864864865        0        
C3        C        0.333333        0.092592        0.23059464864864865        0        
C4        C        0.375        0.037037        0.23059464864864865        0        
C1        C        0.333333        0.12963        0.23059464864864865        0        
C2        C        0.375        0.185185        0.23059464864864865        0        
C3        C        0.333333        0.203703        0.23059464864864865        0        
C4        C        0.375        0.148148        0.23059464864864865        0        
C1        C        0.333333        0.24074099999999998        0.23059464864864865        0        
C2        C        0.375        0.296297        0.23059464864864865        0        
C3        C        0.333333        0.314815        0.23059464864864865        0        
C4        C        0.375        0.259259        0.23059464864864865        0        
C1        C        0.333333        0.351852        0.23059464864864865        0        
C2        C        0.375        0.407408        0.23059464864864865        0        
C3        C        0.333333        0.42592500000000005        0.23059464864864865        0        
C4        C        0.375        0.37037        0.23059464864864865        0        
C1        C        0.333333        0.46296300000000007        0.23059464864864865        0        
C2        C        0.375        0.518519        0.23059464864864865        0        
C3        C        0.333333        0.537037        0.23059464864864865        0        
C4        C        0.375        0.481481        0.23059464864864865        0        
C1        C        0.333333        0.574075        0.23059464864864865        0        
C2        C        0.375        0.62963        0.23059464864864865        0        
C3        C        0.333333        0.648148        0.23059464864864865        0        
C4        C        0.375        0.592592        0.23059464864864865        0        
C1        C        0.416667        0.018519        0.23059464864864865        0        
C2        C        0.458333        0.074075        0.23059464864864865        0        
C3        C        0.416667        0.092592        0.23059464864864865        0        
C4        C        0.458333        0.037037        0.23059464864864865        0        
C1        C        0.416667        0.12963        0.23059464864864865        0        
C2        C        0.458333        0.185185        0.23059464864864865        0        
C3        C        0.416667        0.203703        0.23059464864864865        0        
C4        C        0.458333        0.148148        0.23059464864864865        0        
C1        C        0.416667        0.24074099999999998        0.23059464864864865        0        
C2        C        0.458333        0.296297        0.23059464864864865        0        
C3        C        0.416667        0.314815        0.23059464864864865        0        
C4        C        0.458333        0.259259        0.23059464864864865        0        
C1        C        0.416667        0.351852        0.23059464864864865        0        
C2        C        0.458333        0.407408        0.23059464864864865        0        
C3        C        0.416667        0.42592500000000005        0.23059464864864865        0        
C4        C        0.458333        0.37037        0.23059464864864865        0        
C1        C        0.416667        0.46296300000000007        0.23059464864864865        0        
C2        C        0.458333        0.518519        0.23059464864864865        0        
C3        C        0.416667        0.537037        0.23059464864864865        0        
C4        C        0.458333        0.481481        0.23059464864864865        0        
C1        C        0.416667        0.574075        0.23059464864864865        0        
C2        C        0.458333        0.62963        0.23059464864864865        0        
C3        C        0.416667        0.648148        0.23059464864864865        0        
C4        C        0.458333        0.592592        0.23059464864864865        0        
C1        C        0.5        0.018519        0.23059464864864865        0        
C2        C        0.541667        0.074075        0.23059464864864865        0        
C3        C        0.5        0.092592        0.23059464864864865        0        
C4        C        0.541667        0.037037        0.23059464864864865        0        
C1        C        0.5        0.12963        0.23059464864864865        0        
C2        C        0.541667        0.185185        0.23059464864864865        0        
C3        C        0.5        0.203703        0.23059464864864865        0        
C4        C        0.541667        0.148148        0.23059464864864865        0        
C1        C        0.5        0.24074099999999998        0.23059464864864865        0        
C2        C        0.541667        0.296297        0.23059464864864865        0        
C3        C        0.5        0.314815        0.23059464864864865        0        
C4        C        0.541667        0.259259        0.23059464864864865        0        
C1        C        0.5        0.351852        0.23059464864864865        0        
C2        C        0.541667        0.407408        0.23059464864864865        0        
C3        C        0.5        0.42592500000000005        0.23059464864864865        0        
C4        C        0.541667        0.37037        0.23059464864864865        0        
C1        C        0.5        0.46296300000000007        0.23059464864864865        0        
C2        C        0.541667        0.518519        0.23059464864864865        0        
C3        C        0.5        0.537037        0.23059464864864865        0        
C4        C        0.541667        0.481481        0.23059464864864865        0        
C1        C        0.5        0.574075        0.23059464864864865        0        
C2        C        0.541667        0.62963        0.23059464864864865        0        
C3        C        0.5        0.648148        0.23059464864864865        0        
C4        C        0.541667        0.592592        0.23059464864864865        0        
C1        C        0.583333        0.018519        0.23059464864864865        0        
C2        C        0.625        0.074075        0.23059464864864865        0        
C3        C        0.583333        0.092592        0.23059464864864865        0        
C4        C        0.625        0.037037        0.23059464864864865        0        
C1        C        0.583333        0.12963        0.23059464864864865        0        
C2        C        0.625        0.185185        0.23059464864864865        0        
C3        C        0.583333        0.203703        0.23059464864864865        0        
C4        C        0.625        0.148148        0.23059464864864865        0        
C1        C        0.583333        0.24074099999999998        0.23059464864864865        0        
C2        C        0.625        0.296297        0.23059464864864865        0        
C3        C        0.583333        0.314815        0.23059464864864865        0        
C4        C        0.625        0.259259        0.23059464864864865        0        
C1        C        0.583333        0.351852        0.23059464864864865        0        
C2        C        0.625        0.407408        0.23059464864864865        0        
C3        C        0.583333        0.42592500000000005        0.23059464864864865        0        
C4        C        0.625        0.37037        0.23059464864864865        0        
C1        C        0.583333        0.46296300000000007        0.23059464864864865        0        
C2        C        0.625        0.518519        0.23059464864864865        0        
C3        C        0.583333        0.537037        0.23059464864864865        0        
C4        C        0.625        0.481481        0.23059464864864865        0        
C1        C        0.583333        0.574075        0.23059464864864865        0        
C2        C        0.625        0.62963        0.23059464864864865        0        
C3        C        0.583333        0.648148        0.23059464864864865        0        
C4        C        0.625        0.592592        0.23059464864864865        0        
C1        C        0.666667        0.018519        0.23059464864864865        0        
C2        C        0.708333        0.074075        0.23059464864864865        0        
C3        C        0.666667        0.092592        0.23059464864864865        0        
C4        C        0.708333        0.037037        0.23059464864864865        0        
C1        C        0.666667        0.12963        0.23059464864864865        0        
C2        C        0.708333        0.185185        0.23059464864864865        0        
C3        C        0.666667        0.203703        0.23059464864864865        0        
C4        C        0.708333        0.148148        0.23059464864864865        0        
C1        C        0.666667        0.24074099999999998        0.23059464864864865        0        
C2        C        0.708333        0.296297        0.23059464864864865        0        
C3        C        0.666667        0.314815        0.23059464864864865        0        
C4        C        0.708333        0.259259        0.23059464864864865        0        
C1        C        0.666667        0.351852        0.23059464864864865        0        
C2        C        0.708333        0.407408        0.23059464864864865        0        
C3        C        0.666667        0.42592500000000005        0.23059464864864865        0        
C4        C        0.708333        0.37037        0.23059464864864865        0        
C1        C        0.666667        0.46296300000000007        0.23059464864864865        0        
C2        C        0.708333        0.518519        0.23059464864864865        0        
C3        C        0.666667        0.537037        0.23059464864864865        0        
C4        C        0.708333        0.481481        0.23059464864864865        0        
C1        C        0.666667        0.574075        0.23059464864864865        0        
C2        C        0.708333        0.62963        0.23059464864864865        0        
C3        C        0.666667        0.648148        0.23059464864864865        0        
C4        C        0.708333        0.592592        0.23059464864864865        0        
C1        C        0.75        0.018519        0.23059464864864865        0        
C2        C        0.7916670000000001        0.074075        0.23059464864864865        0        
C3        C        0.75        0.092592        0.23059464864864865        0        
C4        C        0.7916670000000001        0.037037        0.23059464864864865        0        
C1        C        0.75        0.12963        0.23059464864864865        0        
C2        C        0.7916670000000001        0.185185        0.23059464864864865        0        
C3        C        0.75        0.203703        0.23059464864864865        0        
C4        C        0.7916670000000001        0.148148        0.23059464864864865        0        
C1        C        0.75        0.24074099999999998        0.23059464864864865        0        
C2        C        0.7916670000000001        0.296297        0.23059464864864865        0        
C3        C        0.75        0.314815        0.23059464864864865        0        
C4        C        0.7916670000000001        0.259259        0.23059464864864865        0        
C1        C        0.75        0.351852        0.23059464864864865        0        
C2        C        0.7916670000000001        0.407408        0.23059464864864865        0        
C3        C        0.75        0.42592500000000005        0.23059464864864865        0        
C4        C        0.7916670000000001        0.37037        0.23059464864864865        0        
C1        C        0.75        0.46296300000000007        0.23059464864864865        0        
C2        C        0.7916670000000001        0.518519        0.23059464864864865        0        
C3        C        0.75        0.537037        0.23059464864864865        0        
C4        C        0.7916670000000001        0.481481        0.23059464864864865        0        
C1        C        0.75        0.574075        0.23059464864864865        0        
C2        C        0.7916670000000001        0.62963        0.23059464864864865        0        
C3        C        0.75        0.648148        0.23059464864864865        0        
C4        C        0.7916670000000001        0.592592        0.23059464864864865        0        
C1        C        0.833333        0.018519        0.23059464864864865        0        
C2        C        0.875        0.074075        0.23059464864864865        0        
C3        C        0.833333        0.092592        0.23059464864864865        0        
C4        C        0.875        0.037037        0.23059464864864865        0        
C1        C        0.833333        0.12963        0.23059464864864865        0        
C2        C        0.875        0.185185        0.23059464864864865        0        
C3        C        0.833333        0.203703        0.23059464864864865        0        
C4        C        0.875        0.148148        0.23059464864864865        0        
C1        C        0.833333        0.24074099999999998        0.23059464864864865        0        
C2        C        0.875        0.296297        0.23059464864864865        0        
C3        C        0.833333        0.314815        0.23059464864864865        0        
C4        C        0.875        0.259259        0.23059464864864865        0        
C1        C        0.833333        0.351852        0.23059464864864865        0        
C2        C        0.875        0.407408        0.23059464864864865        0        
C3        C        0.833333        0.42592500000000005        0.23059464864864865        0        
C4        C        0.875        0.37037        0.23059464864864865        0        
C1        C        0.833333        0.46296300000000007        0.23059464864864865        0        
C2        C        0.875        0.518519        0.23059464864864865        0        
C3        C        0.833333        0.537037        0.23059464864864865        0        
C4        C        0.875        0.481481        0.23059464864864865        0        
C1        C        0.833333        0.574075        0.23059464864864865        0        
C2        C        0.875        0.62963        0.23059464864864865        0        
C3        C        0.833333        0.648148        0.23059464864864865        0        
C4        C        0.875        0.592592        0.23059464864864865        0        
C1        C        0.916667        0.018519        0.23059464864864865        0        
C2        C        0.958333        0.074075        0.23059464864864865        0        
C3        C        0.916667        0.092592        0.23059464864864865        0        
C4        C        0.958333        0.037037        0.23059464864864865        0        
C1        C        0.916667        0.12963        0.23059464864864865        0        
C2        C        0.958333        0.185185        0.23059464864864865        0        
C3        C        0.916667        0.203703        0.23059464864864865        0        
C4        C        0.958333        0.148148        0.23059464864864865        0        
C1        C        0.916667        0.24074099999999998        0.23059464864864865        0        
C2        C        0.958333        0.296297        0.23059464864864865        0        
C3        C        0.916667        0.314815        0.23059464864864865        0        
C4        C        0.958333        0.259259        0.23059464864864865        0        
C1        C        0.916667        0.351852        0.23059464864864865        0        
C2        C        0.958333        0.407408        0.23059464864864865        0        
C3        C        0.916667        0.42592500000000005        0.23059464864864865        0        
C4        C        0.958333        0.37037        0.23059464864864865        0        
C1        C        0.916667        0.46296300000000007        0.23059464864864865        0        
C2        C        0.958333        0.518519        0.23059464864864865        0        
C3        C        0.916667        0.537037        0.23059464864864865        0        
C4        C        0.958333        0.481481        0.23059464864864865        0        
C1        C        0.916667        0.574075        0.23059464864864865        0        
C2        C        0.958333        0.62963        0.23059464864864865        0        
C3        C        0.916667        0.648148        0.23059464864864865        0        
C4        C        0.958333        0.592592        0.23059464864864865        0        
C1        C        0.0        0.685186        0.23059464864864865        0        
C1        C        0.083333        0.685186        0.23059464864864865        0        
C1        C        0.166667        0.685186        0.23059464864864865        0        
C1        C        0.25        0.685186        0.23059464864864865        0        
C1        C        0.333333        0.685186        0.23059464864864865        0        
C1        C        0.416667        0.685186        0.23059464864864865        0        
C1        C        0.5        0.685186        0.23059464864864865        0        
C1        C        0.583333        0.685186        0.23059464864864865        0        
C1        C        0.666667        0.685186        0.23059464864864865        0        
C1        C        0.75        0.685186        0.23059464864864865        0        
C1        C        0.833333        0.685186        0.23059464864864865        0        
C1        C        0.916667        0.685186        0.23059464864864865        0        
C2        C        0.041667        0.740741        0.23059464864864865        0        
C2        C        0.125        0.740741        0.23059464864864865        0        
C2        C        0.208333        0.740741        0.23059464864864865        0        
C2        C        0.291667        0.740741        0.23059464864864865        0        
C2        C        0.375        0.740741        0.23059464864864865        0        
C2        C        0.458333        0.740741        0.23059464864864865        0        
C2        C        0.541667        0.740741        0.23059464864864865        0        
C2        C        0.625        0.740741        0.23059464864864865        0        
C2        C        0.708333        0.740741        0.23059464864864865        0        
C2        C        0.7916670000000001        0.740741        0.23059464864864865        0        
C2        C        0.875        0.740741        0.23059464864864865        0        
C2        C        0.958333        0.740741        0.23059464864864865        0        
C3        C        0.0        0.759259        0.23059464864864865        0        
C3        C        0.083333        0.759259        0.23059464864864865        0        
C3        C        0.166667        0.759259        0.23059464864864865        0        
C3        C        0.25        0.759259        0.23059464864864865        0        
C3        C        0.333333        0.759259        0.23059464864864865        0        
C3        C        0.416667        0.759259        0.23059464864864865        0        
C3        C        0.5        0.759259        0.23059464864864865        0        
C3        C        0.583333        0.759259        0.23059464864864865        0        
C3        C        0.666667        0.759259        0.23059464864864865        0        
C3        C        0.75        0.759259        0.23059464864864865        0        
C3        C        0.833333        0.759259        0.23059464864864865        0        
C3        C        0.916667        0.759259        0.23059464864864865        0        
C4        C        0.041667        0.703703        0.23059464864864865        0        
C4        C        0.125        0.703703        0.23059464864864865        0        
C4        C        0.208333        0.703703        0.23059464864864865        0        
C4        C        0.291667        0.703703        0.23059464864864865        0        
C4        C        0.375        0.703703        0.23059464864864865        0        
C4        C        0.458333        0.703703        0.23059464864864865        0        
C4        C        0.541667        0.703703        0.23059464864864865        0        
C4        C        0.625        0.703703        0.23059464864864865        0        
C4        C        0.708333        0.703703        0.23059464864864865        0        
C4        C        0.7916670000000001        0.703703        0.23059464864864865        0        
C4        C        0.875        0.703703        0.23059464864864865        0        
C4        C        0.958333        0.703703        0.23059464864864865        0        
C1        C        0.0        0.796297        0.23059464864864865        0        
C1        C        0.083333        0.796297        0.23059464864864865        0        
C1        C        0.166667        0.796297        0.23059464864864865        0        
C1        C        0.25        0.796297        0.23059464864864865        0        
C1        C        0.333333        0.796297        0.23059464864864865        0        
C1        C        0.416667        0.796297        0.23059464864864865        0        
C1        C        0.5        0.796297        0.23059464864864865        0        
C1        C        0.583333        0.796297        0.23059464864864865        0        
C1        C        0.666667        0.796297        0.23059464864864865        0        
C1        C        0.75        0.796297        0.23059464864864865        0        
C1        C        0.833333        0.796297        0.23059464864864865        0        
C1        C        0.916667        0.796297        0.23059464864864865        0        
C2        C        0.041667        0.851852        0.23059464864864865        0        
C2        C        0.125        0.851852        0.23059464864864865        0        
C2        C        0.208333        0.851852        0.23059464864864865        0        
C2        C        0.291667        0.851852        0.23059464864864865        0        
C2        C        0.375        0.851852        0.23059464864864865        0        
C2        C        0.458333        0.851852        0.23059464864864865        0        
C2        C        0.541667        0.851852        0.23059464864864865        0        
C2        C        0.625        0.851852        0.23059464864864865        0        
C2        C        0.708333        0.851852        0.23059464864864865        0        
C2        C        0.7916670000000001        0.851852        0.23059464864864865        0        
C2        C        0.875        0.851852        0.23059464864864865        0        
C2        C        0.958333        0.851852        0.23059464864864865        0        
C3        C        0.0        0.87037        0.23059464864864865        0        
C3        C        0.083333        0.87037        0.23059464864864865        0        
C3        C        0.166667        0.87037        0.23059464864864865        0        
C3        C        0.25        0.87037        0.23059464864864865        0        
C3        C        0.333333        0.87037        0.23059464864864865        0        
C3        C        0.416667        0.87037        0.23059464864864865        0        
C3        C        0.5        0.87037        0.23059464864864865        0        
C3        C        0.583333        0.87037        0.23059464864864865        0        
C3        C        0.666667        0.87037        0.23059464864864865        0        
C3        C        0.75        0.87037        0.23059464864864865        0        
C3        C        0.833333        0.87037        0.23059464864864865        0        
C3        C        0.916667        0.87037        0.23059464864864865        0        
C4        C        0.041667        0.814814        0.23059464864864865        0        
C4        C        0.125        0.814814        0.23059464864864865        0        
C4        C        0.208333        0.814814        0.23059464864864865        0        
C4        C        0.291667        0.814814        0.23059464864864865        0        
C4        C        0.375        0.814814        0.23059464864864865        0        
C4        C        0.458333        0.814814        0.23059464864864865        0        
C4        C        0.541667        0.814814        0.23059464864864865        0        
C4        C        0.625        0.814814        0.23059464864864865        0        
C4        C        0.708333        0.814814        0.23059464864864865        0        
C4        C        0.7916670000000001        0.814814        0.23059464864864865        0        
C4        C        0.875        0.814814        0.23059464864864865        0        
C4        C        0.958333        0.814814        0.23059464864864865        0        
C1        C        0.0        0.907408        0.23059464864864865        0        
C1        C        0.083333        0.907408        0.23059464864864865        0        
C1        C        0.166667        0.907408        0.23059464864864865        0        
C1        C        0.25        0.907408        0.23059464864864865        0        
C1        C        0.333333        0.907408        0.23059464864864865        0        
C1        C        0.416667        0.907408        0.23059464864864865        0        
C1        C        0.5        0.907408        0.23059464864864865        0        
C1        C        0.583333        0.907408        0.23059464864864865        0        
C1        C        0.666667        0.907408        0.23059464864864865        0        
C1        C        0.75        0.907408        0.23059464864864865        0        
C1        C        0.833333        0.907408        0.23059464864864865        0        
C1        C        0.916667        0.907408        0.23059464864864865        0        
C2        C        0.041667        0.962963        0.23059464864864865        0        
C2        C        0.125        0.962963        0.23059464864864865        0        
C2        C        0.208333        0.962963        0.23059464864864865        0        
C2        C        0.291667        0.962963        0.23059464864864865        0        
C2        C        0.375        0.962963        0.23059464864864865        0        
C2        C        0.458333        0.962963        0.23059464864864865        0        
C2        C        0.541667        0.962963        0.23059464864864865        0        
C2        C        0.625        0.962963        0.23059464864864865        0        
C2        C        0.708333        0.962963        0.23059464864864865        0        
C2        C        0.7916670000000001        0.962963        0.23059464864864865        0        
C2        C        0.875        0.962963        0.23059464864864865        0        
C2        C        0.958333        0.962963        0.23059464864864865        0        
C3        C        0.0        0.9814809999999999        0.23059464864864865        0        
C3        C        0.083333        0.9814809999999999        0.23059464864864865        0        
C3        C        0.166667        0.9814809999999999        0.23059464864864865        0        
C3        C        0.25        0.9814809999999999        0.23059464864864865        0        
C3        C        0.333333        0.9814809999999999        0.23059464864864865        0        
C3        C        0.416667        0.9814809999999999        0.23059464864864865        0        
C3        C        0.5        0.9814809999999999        0.23059464864864865        0        
C3        C        0.583333        0.9814809999999999        0.23059464864864865        0        
C3        C        0.666667        0.9814809999999999        0.23059464864864865        0        
C3        C        0.75        0.9814809999999999        0.23059464864864865        0        
C3        C        0.833333        0.9814809999999999        0.23059464864864865        0        
C3        C        0.916667        0.9814809999999999        0.23059464864864865        0        
C4        C        0.041667        0.925925        0.23059464864864865        0        
C4        C        0.125        0.925925        0.23059464864864865        0        
C4        C        0.208333        0.925925        0.23059464864864865        0        
C4        C        0.291667        0.925925        0.23059464864864865        0        
C4        C        0.375        0.925925        0.23059464864864865        0        
C4        C        0.458333        0.925925        0.23059464864864865        0        
C4        C        0.541667        0.925925        0.23059464864864865        0        
C4        C        0.625        0.925925        0.23059464864864865        0        
C4        C        0.708333        0.925925        0.23059464864864865        0        
C4        C        0.7916670000000001        0.925925        0.23059464864864865        0        
C4        C        0.875        0.925925        0.23059464864864865        0        
C4        C        0.958333        0.925925        0.23059464864864865        0        
C1        C        0.0        0.018519        0.38149564864864866        0        
C2        C        0.041667        0.074075        0.38149564864864866        0        
C3        C        0.0        0.092592        0.38149564864864866        0        
C4        C        0.041667        0.037037        0.38149564864864866        0        
C1        C        0.0        0.12963        0.38149564864864866        0        
C2        C        0.041667        0.185185        0.38149564864864866        0        
C3        C        0.0        0.203703        0.38149564864864866        0        
C4        C        0.041667        0.148148        0.38149564864864866        0        
C1        C        0.0        0.24074099999999998        0.38149564864864866        0        
C2        C        0.041667        0.296297        0.38149564864864866        0        
C3        C        0.0        0.314815        0.38149564864864866        0        
C4        C        0.041667        0.259259        0.38149564864864866        0        
C1        C        0.0        0.351852        0.38149564864864866        0        
C2        C        0.041667        0.407408        0.38149564864864866        0        
C3        C        0.0        0.42592500000000005        0.38149564864864866        0        
C4        C        0.041667        0.37037        0.38149564864864866        0        
C1        C        0.0        0.46296300000000007        0.38149564864864866        0        
C2        C        0.041667        0.518519        0.38149564864864866        0        
C3        C        0.0        0.537037        0.38149564864864866        0        
C4        C        0.041667        0.481481        0.38149564864864866        0        
C1        C        0.0        0.574075        0.38149564864864866        0        
C2        C        0.041667        0.62963        0.38149564864864866        0        
C3        C        0.0        0.648148        0.38149564864864866        0        
C4        C        0.041667        0.592592        0.38149564864864866        0        
C1        C        0.083333        0.018519        0.38149564864864866        0        
C2        C        0.125        0.074075        0.38149564864864866        0        
C3        C        0.083333        0.092592        0.38149564864864866        0        
C4        C        0.125        0.037037        0.38149564864864866        0        
C1        C        0.083333        0.12963        0.38149564864864866        0        
C2        C        0.125        0.185185        0.38149564864864866        0        
C3        C        0.083333        0.203703        0.38149564864864866        0        
C4        C        0.125        0.148148        0.38149564864864866        0        
C1        C        0.083333        0.24074099999999998        0.38149564864864866        0        
C2        C        0.125        0.296297        0.38149564864864866        0        
C3        C        0.083333        0.314815        0.38149564864864866        0        
C4        C        0.125        0.259259        0.38149564864864866        0        
C1        C        0.083333        0.351852        0.38149564864864866        0        
C2        C        0.125        0.407408        0.38149564864864866        0        
C3        C        0.083333        0.42592500000000005        0.38149564864864866        0        
C4        C        0.125        0.37037        0.38149564864864866        0        
C1        C        0.083333        0.46296300000000007        0.38149564864864866        0        
C2        C        0.125        0.518519        0.38149564864864866        0        
C3        C        0.083333        0.537037        0.38149564864864866        0        
C4        C        0.125        0.481481        0.38149564864864866        0        
C1        C        0.083333        0.574075        0.38149564864864866        0        
C2        C        0.125        0.62963        0.38149564864864866        0        
C3        C        0.083333        0.648148        0.38149564864864866        0        
C4        C        0.125        0.592592        0.38149564864864866        0        
C1        C        0.166667        0.018519        0.38149564864864866        0        
C2        C        0.208333        0.074075        0.38149564864864866        0        
C3        C        0.166667        0.092592        0.38149564864864866        0        
C4        C        0.208333        0.037037        0.38149564864864866        0        
C1        C        0.166667        0.12963        0.38149564864864866        0        
C2        C        0.208333        0.185185        0.38149564864864866        0        
C3        C        0.166667        0.203703        0.38149564864864866        0        
C4        C        0.208333        0.148148        0.38149564864864866        0        
C1        C        0.166667        0.24074099999999998        0.38149564864864866        0        
C2        C        0.208333        0.296297        0.38149564864864866        0        
C3        C        0.166667        0.314815        0.38149564864864866        0        
C4        C        0.208333        0.259259        0.38149564864864866        0        
C1        C        0.166667        0.351852        0.38149564864864866        0        
C2        C        0.208333        0.407408        0.38149564864864866        0        
C3        C        0.166667        0.42592500000000005        0.38149564864864866        0        
C4        C        0.208333        0.37037        0.38149564864864866        0        
C1        C        0.166667        0.46296300000000007        0.38149564864864866        0        
C2        C        0.208333        0.518519        0.38149564864864866        0        
C3        C        0.166667        0.537037        0.38149564864864866        0        
C4        C        0.208333        0.481481        0.38149564864864866        0        
C1        C        0.166667        0.574075        0.38149564864864866        0        
C2        C        0.208333        0.62963        0.38149564864864866        0        
C3        C        0.166667        0.648148        0.38149564864864866        0        
C4        C        0.208333        0.592592        0.38149564864864866        0        
C1        C        0.25        0.018519        0.38149564864864866        0        
C2        C        0.291667        0.074075        0.38149564864864866        0        
C3        C        0.25        0.092592        0.38149564864864866        0        
C4        C        0.291667        0.037037        0.38149564864864866        0        
C1        C        0.25        0.12963        0.38149564864864866        0        
C2        C        0.291667        0.185185        0.38149564864864866        0        
C3        C        0.25        0.203703        0.38149564864864866        0        
C4        C        0.291667        0.148148        0.38149564864864866        0        
C1        C        0.25        0.24074099999999998        0.38149564864864866        0        
C2        C        0.291667        0.296297        0.38149564864864866        0        
C3        C        0.25        0.314815        0.38149564864864866        0        
C4        C        0.291667        0.259259        0.38149564864864866        0        
C1        C        0.25        0.351852        0.38149564864864866        0        
C2        C        0.291667        0.407408        0.38149564864864866        0        
C3        C        0.25        0.42592500000000005        0.38149564864864866        0        
C4        C        0.291667        0.37037        0.38149564864864866        0        
C1        C        0.25        0.46296300000000007        0.38149564864864866        0        
C2        C        0.291667        0.518519        0.38149564864864866        0        
C3        C        0.25        0.537037        0.38149564864864866        0        
C4        C        0.291667        0.481481        0.38149564864864866        0        
C1        C        0.25        0.574075        0.38149564864864866        0        
C2        C        0.291667        0.62963        0.38149564864864866        0        
C3        C        0.25        0.648148        0.38149564864864866        0        
C4        C        0.291667        0.592592        0.38149564864864866        0        
C1        C        0.333333        0.018519        0.38149564864864866        0        
C2        C        0.375        0.074075        0.38149564864864866        0        
C3        C        0.333333        0.092592        0.38149564864864866        0        
C4        C        0.375        0.037037        0.38149564864864866        0        
C1        C        0.333333        0.12963        0.38149564864864866        0        
C2        C        0.375        0.185185        0.38149564864864866        0        
C3        C        0.333333        0.203703        0.38149564864864866        0        
C4        C        0.375        0.148148        0.38149564864864866        0        
C1        C        0.333333        0.24074099999999998        0.38149564864864866        0        
C2        C        0.375        0.296297        0.38149564864864866        0        
C3        C        0.333333        0.314815        0.38149564864864866        0        
C4        C        0.375        0.259259        0.38149564864864866        0        
C1        C        0.333333        0.351852        0.38149564864864866        0        
C2        C        0.375        0.407408        0.38149564864864866        0        
C3        C        0.333333        0.42592500000000005        0.38149564864864866        0        
C4        C        0.375        0.37037        0.38149564864864866        0        
C1        C        0.333333        0.46296300000000007        0.38149564864864866        0        
C2        C        0.375        0.518519        0.38149564864864866        0        
C3        C        0.333333        0.537037        0.38149564864864866        0        
C4        C        0.375        0.481481        0.38149564864864866        0        
C1        C        0.333333        0.574075        0.38149564864864866        0        
C2        C        0.375        0.62963        0.38149564864864866        0        
C3        C        0.333333        0.648148        0.38149564864864866        0        
C4        C        0.375        0.592592        0.38149564864864866        0        
C1        C        0.416667        0.018519        0.38149564864864866        0        
C2        C        0.458333        0.074075        0.38149564864864866        0        
C3        C        0.416667        0.092592        0.38149564864864866        0        
C4        C        0.458333        0.037037        0.38149564864864866        0        
C1        C        0.416667        0.12963        0.38149564864864866        0        
C2        C        0.458333        0.185185        0.38149564864864866        0        
C3        C        0.416667        0.203703        0.38149564864864866        0        
C4        C        0.458333        0.148148        0.38149564864864866        0        
C1        C        0.416667        0.24074099999999998        0.38149564864864866        0        
C2        C        0.458333        0.296297        0.38149564864864866        0        
C3        C        0.416667        0.314815        0.38149564864864866        0        
C4        C        0.458333        0.259259        0.38149564864864866        0        
C1        C        0.416667        0.351852        0.38149564864864866        0        
C2        C        0.458333        0.407408        0.38149564864864866        0        
C3        C        0.416667        0.42592500000000005        0.38149564864864866        0        
C4        C        0.458333        0.37037        0.38149564864864866        0        
C1        C        0.416667        0.46296300000000007        0.38149564864864866        0        
C2        C        0.458333        0.518519        0.38149564864864866        0        
C3        C        0.416667        0.537037        0.38149564864864866        0        
C4        C        0.458333        0.481481        0.38149564864864866        0        
C1        C        0.416667        0.574075        0.38149564864864866        0        
C2        C        0.458333        0.62963        0.38149564864864866        0        
C3        C        0.416667        0.648148        0.38149564864864866        0        
C4        C        0.458333        0.592592        0.38149564864864866        0        
C1        C        0.5        0.018519        0.38149564864864866        0        
C2        C        0.541667        0.074075        0.38149564864864866        0        
C3        C        0.5        0.092592        0.38149564864864866        0        
C4        C        0.541667        0.037037        0.38149564864864866        0        
C1        C        0.5        0.12963        0.38149564864864866        0        
C2        C        0.541667        0.185185        0.38149564864864866        0        
C3        C        0.5        0.203703        0.38149564864864866        0        
C4        C        0.541667        0.148148        0.38149564864864866        0        
C1        C        0.5        0.24074099999999998        0.38149564864864866        0        
C2        C        0.541667        0.296297        0.38149564864864866        0        
C3        C        0.5        0.314815        0.38149564864864866        0        
C4        C        0.541667        0.259259        0.38149564864864866        0        
C1        C        0.5        0.351852        0.38149564864864866        0        
C2        C        0.541667        0.407408        0.38149564864864866        0        
C3        C        0.5        0.42592500000000005        0.38149564864864866        0        
C4        C        0.541667        0.37037        0.38149564864864866        0        
C1        C        0.5        0.46296300000000007        0.38149564864864866        0        
C2        C        0.541667        0.518519        0.38149564864864866        0        
C3        C        0.5        0.537037        0.38149564864864866        0        
C4        C        0.541667        0.481481        0.38149564864864866        0        
C1        C        0.5        0.574075        0.38149564864864866        0        
C2        C        0.541667        0.62963        0.38149564864864866        0        
C3        C        0.5        0.648148        0.38149564864864866        0        
C4        C        0.541667        0.592592        0.38149564864864866        0        
C1        C        0.583333        0.018519        0.38149564864864866        0        
C2        C        0.625        0.074075        0.38149564864864866        0        
C3        C        0.583333        0.092592        0.38149564864864866        0        
C4        C        0.625        0.037037        0.38149564864864866        0        
C1        C        0.583333        0.12963        0.38149564864864866        0        
C2        C        0.625        0.185185        0.38149564864864866        0        
C3        C        0.583333        0.203703        0.38149564864864866        0        
C4        C        0.625        0.148148        0.38149564864864866        0        
C1        C        0.583333        0.24074099999999998        0.38149564864864866        0        
C2        C        0.625        0.296297        0.38149564864864866        0        
C3        C        0.583333        0.314815        0.38149564864864866        0        
C4        C        0.625        0.259259        0.38149564864864866        0        
C1        C        0.583333        0.351852        0.38149564864864866        0        
C2        C        0.625        0.407408        0.38149564864864866        0        
C3        C        0.583333        0.42592500000000005        0.38149564864864866        0        
C4        C        0.625        0.37037        0.38149564864864866        0        
C1        C        0.583333        0.46296300000000007        0.38149564864864866        0        
C2        C        0.625        0.518519        0.38149564864864866        0        
C3        C        0.583333        0.537037        0.38149564864864866        0        
C4        C        0.625        0.481481        0.38149564864864866        0        
C1        C        0.583333        0.574075        0.38149564864864866        0        
C2        C        0.625        0.62963        0.38149564864864866        0        
C3        C        0.583333        0.648148        0.38149564864864866        0        
C4        C        0.625        0.592592        0.38149564864864866        0        
C1        C        0.666667        0.018519        0.38149564864864866        0        
C2        C        0.708333        0.074075        0.38149564864864866        0        
C3        C        0.666667        0.092592        0.38149564864864866        0        
C4        C        0.708333        0.037037        0.38149564864864866        0        
C1        C        0.666667        0.12963        0.38149564864864866        0        
C2        C        0.708333        0.185185        0.38149564864864866        0        
C3        C        0.666667        0.203703        0.38149564864864866        0        
C4        C        0.708333        0.148148        0.38149564864864866        0        
C1        C        0.666667        0.24074099999999998        0.38149564864864866        0        
C2        C        0.708333        0.296297        0.38149564864864866        0        
C3        C        0.666667        0.314815        0.38149564864864866        0        
C4        C        0.708333        0.259259        0.38149564864864866        0        
C1        C        0.666667        0.351852        0.38149564864864866        0        
C2        C        0.708333        0.407408        0.38149564864864866        0        
C3        C        0.666667        0.42592500000000005        0.38149564864864866        0        
C4        C        0.708333        0.37037        0.38149564864864866        0        
C1        C        0.666667        0.46296300000000007        0.38149564864864866        0        
C2        C        0.708333        0.518519        0.38149564864864866        0        
C3        C        0.666667        0.537037        0.38149564864864866        0        
C4        C        0.708333        0.481481        0.38149564864864866        0        
C1        C        0.666667        0.574075        0.38149564864864866        0        
C2        C        0.708333        0.62963        0.38149564864864866        0        
C3        C        0.666667        0.648148        0.38149564864864866        0        
C4        C        0.708333        0.592592        0.38149564864864866        0        
C_FG        C        0.75        0.018519        0.38149564864864866        0.2        
C2        C        0.7916670000000001        0.074075        0.38149564864864866        0        
C3        C        0.75        0.092592        0.38149564864864866        0        
C4        C        0.7916670000000001        0.037037        0.38149564864864866        0        
C_FG        C        0.75        0.12963        0.38149564864864866        0.2        
C2        C        0.7916670000000001        0.185185        0.38149564864864866        0        
C3        C        0.75        0.203703        0.38149564864864866        0        
C4        C        0.7916670000000001        0.148148        0.38149564864864866        0        
C_FG        C        0.75        0.24074099999999998        0.38149564864864866        0.2        
C2        C        0.7916670000000001        0.296297        0.38149564864864866        0        
C3        C        0.75        0.314815        0.38149564864864866        0        
C4        C        0.7916670000000001        0.259259        0.38149564864864866        0        
C_FG        C        0.75        0.351852        0.38149564864864866        0.2        
C2        C        0.7916670000000001        0.407408        0.38149564864864866        0        
C3        C        0.75        0.42592500000000005        0.38149564864864866        0        
C4        C        0.7916670000000001        0.37037        0.38149564864864866        0        
C_FG        C        0.75        0.46296300000000007        0.38149564864864866        0.2        
C2        C        0.7916670000000001        0.518519        0.38149564864864866        0        
C3        C        0.75        0.537037        0.38149564864864866        0        
C4        C        0.7916670000000001        0.481481        0.38149564864864866        0        
C_FG        C        0.75        0.574075        0.38149564864864866        0.2        
C2        C        0.7916670000000001        0.62963        0.38149564864864866        0        
C3        C        0.75        0.648148        0.38149564864864866        0        
C4        C        0.7916670000000001        0.592592        0.38149564864864866        0        
C1        C        0.833333        0.018519        0.38149564864864866        0        
C2        C        0.875        0.074075        0.38149564864864866        0        
C3        C        0.833333        0.092592        0.38149564864864866        0        
C4        C        0.875        0.037037        0.38149564864864866        0        
C1        C        0.833333        0.12963        0.38149564864864866        0        
C2        C        0.875        0.185185        0.38149564864864866        0        
C3        C        0.833333        0.203703        0.38149564864864866        0        
C4        C        0.875        0.148148        0.38149564864864866        0        
C1        C        0.833333        0.24074099999999998        0.38149564864864866        0        
C2        C        0.875        0.296297        0.38149564864864866        0        
C3        C        0.833333        0.314815        0.38149564864864866        0        
C4        C        0.875        0.259259        0.38149564864864866        0        
C1        C        0.833333        0.351852        0.38149564864864866        0        
C2        C        0.875        0.407408        0.38149564864864866        0        
C3        C        0.833333        0.42592500000000005        0.38149564864864866        0        
C4        C        0.875        0.37037        0.38149564864864866        0        
C1        C        0.833333        0.46296300000000007        0.38149564864864866        0        
C2        C        0.875        0.518519        0.38149564864864866        0        
C3        C        0.833333        0.537037        0.38149564864864866        0        
C4        C        0.875        0.481481        0.38149564864864866        0        
C1        C        0.833333        0.574075        0.38149564864864866        0        
C2        C        0.875        0.62963        0.38149564864864866        0        
C3        C        0.833333        0.648148        0.38149564864864866        0        
C4        C        0.875        0.592592        0.38149564864864866        0        
C_FG        C        0.916667        0.018519        0.38149564864864866        0.2        
C2        C        0.958333        0.074075        0.38149564864864866        0        
C3        C        0.916667        0.092592        0.38149564864864866        0        
C4        C        0.958333        0.037037        0.38149564864864866        0        
C_FG        C        0.916667        0.12963        0.38149564864864866        0.2        
C2        C        0.958333        0.185185        0.38149564864864866        0        
C3        C        0.916667        0.203703        0.38149564864864866        0        
C4        C        0.958333        0.148148        0.38149564864864866        0        
C_FG        C        0.916667        0.24074099999999998        0.38149564864864866        0.2        
C2        C        0.958333        0.296297        0.38149564864864866        0        
C3        C        0.916667        0.314815        0.38149564864864866        0        
C4        C        0.958333        0.259259        0.38149564864864866        0        
C_FG        C        0.916667        0.351852        0.38149564864864866        0.2        
C2        C        0.958333        0.407408        0.38149564864864866        0        
C3        C        0.916667        0.42592500000000005        0.38149564864864866        0        
C4        C        0.958333        0.37037        0.38149564864864866        0        
C_FG        C        0.916667        0.46296300000000007        0.38149564864864866        0.2        
C2        C        0.958333        0.518519        0.38149564864864866        0        
C3        C        0.916667        0.537037        0.38149564864864866        0        
C4        C        0.958333        0.481481        0.38149564864864866        0        
C_FG        C        0.916667        0.574075        0.38149564864864866        0.2        
C2        C        0.958333        0.62963        0.38149564864864866        0        
C3        C        0.916667        0.648148        0.38149564864864866        0        
C4        C        0.958333        0.592592        0.38149564864864866        0        
C1        C        0.0        0.685186        0.38149564864864866        0        
C1        C        0.083333        0.685186        0.38149564864864866        0        
C1        C        0.166667        0.685186        0.38149564864864866        0        
C1        C        0.25        0.685186        0.38149564864864866        0        
C1        C        0.333333        0.685186        0.38149564864864866        0        
C1        C        0.416667        0.685186        0.38149564864864866        0        
C1        C        0.5        0.685186        0.38149564864864866        0        
C1        C        0.583333        0.685186        0.38149564864864866        0        
C1        C        0.666667        0.685186        0.38149564864864866        0        
C_FG        C        0.75        0.685186        0.38149564864864866        0.2        
C1        C        0.833333        0.685186        0.38149564864864866        0        
C_FG        C        0.916667        0.685186        0.38149564864864866        0.2        
C2        C        0.041667        0.740741        0.38149564864864866        0        
C2        C        0.125        0.740741        0.38149564864864866        0        
C2        C        0.208333        0.740741        0.38149564864864866        0        
C2        C        0.291667        0.740741        0.38149564864864866        0        
C2        C        0.375        0.740741        0.38149564864864866        0        
C2        C        0.458333        0.740741        0.38149564864864866        0        
C2        C        0.541667        0.740741        0.38149564864864866        0        
C2        C        0.625        0.740741        0.38149564864864866        0        
C2        C        0.708333        0.740741        0.38149564864864866        0        
C2        C        0.7916670000000001        0.740741        0.38149564864864866        0        
C2        C        0.875        0.740741        0.38149564864864866        0        
C2        C        0.958333        0.740741        0.38149564864864866        0        
C3        C        0.0        0.759259        0.38149564864864866        0        
C3        C        0.083333        0.759259        0.38149564864864866        0        
C3        C        0.166667        0.759259        0.38149564864864866        0        
C3        C        0.25        0.759259        0.38149564864864866        0        
C3        C        0.333333        0.759259        0.38149564864864866        0        
C3        C        0.416667        0.759259        0.38149564864864866        0        
C3        C        0.5        0.759259        0.38149564864864866        0        
C3        C        0.583333        0.759259        0.38149564864864866        0        
C3        C        0.666667        0.759259        0.38149564864864866        0        
C3        C        0.75        0.759259        0.38149564864864866        0        
C3        C        0.833333        0.759259        0.38149564864864866        0        
C3        C        0.916667        0.759259        0.38149564864864866        0        
C4        C        0.041667        0.703703        0.38149564864864866        0        
C4        C        0.125        0.703703        0.38149564864864866        0        
C4        C        0.208333        0.703703        0.38149564864864866        0        
C4        C        0.291667        0.703703        0.38149564864864866        0        
C4        C        0.375        0.703703        0.38149564864864866        0        
C4        C        0.458333        0.703703        0.38149564864864866        0        
C4        C        0.541667        0.703703        0.38149564864864866        0        
C4        C        0.625        0.703703        0.38149564864864866        0        
C4        C        0.708333        0.703703        0.38149564864864866        0        
C4        C        0.7916670000000001        0.703703        0.38149564864864866        0        
C4        C        0.875        0.703703        0.38149564864864866        0        
C4        C        0.958333        0.703703        0.38149564864864866        0        
C1        C        0.0        0.796297        0.38149564864864866        0        
C1        C        0.083333        0.796297        0.38149564864864866        0        
C1        C        0.166667        0.796297        0.38149564864864866        0        
C1        C        0.25        0.796297        0.38149564864864866        0        
C1        C        0.333333        0.796297        0.38149564864864866        0        
C1        C        0.416667        0.796297        0.38149564864864866        0        
C1        C        0.5        0.796297        0.38149564864864866        0        
C1        C        0.583333        0.796297        0.38149564864864866        0        
C1        C        0.666667        0.796297        0.38149564864864866        0        
C_FG        C        0.75        0.796297        0.38149564864864866        0.2        
C1        C        0.833333        0.796297        0.38149564864864866        0        
C_FG        C        0.916667        0.796297        0.38149564864864866        0.2        
C2        C        0.041667        0.851852        0.38149564864864866        0        
C2        C        0.125        0.851852        0.38149564864864866        0        
C2        C        0.208333        0.851852        0.38149564864864866        0        
C2        C        0.291667        0.851852        0.38149564864864866        0        
C2        C        0.375        0.851852        0.38149564864864866        0        
C2        C        0.458333        0.851852        0.38149564864864866        0        
C2        C        0.541667        0.851852        0.38149564864864866        0        
C2        C        0.625        0.851852        0.38149564864864866        0        
C2        C        0.708333        0.851852        0.38149564864864866        0        
C2        C        0.7916670000000001        0.851852        0.38149564864864866        0        
C2        C        0.875        0.851852        0.38149564864864866        0        
C2        C        0.958333        0.851852        0.38149564864864866        0        
C3        C        0.0        0.87037        0.38149564864864866        0        
C3        C        0.083333        0.87037        0.38149564864864866        0        
C3        C        0.166667        0.87037        0.38149564864864866        0        
C3        C        0.25        0.87037        0.38149564864864866        0        
C3        C        0.333333        0.87037        0.38149564864864866        0        
C3        C        0.416667        0.87037        0.38149564864864866        0        
C3        C        0.5        0.87037        0.38149564864864866        0        
C3        C        0.583333        0.87037        0.38149564864864866        0        
C3        C        0.666667        0.87037        0.38149564864864866        0        
C3        C        0.75        0.87037        0.38149564864864866        0        
C3        C        0.833333        0.87037        0.38149564864864866        0        
C3        C        0.916667        0.87037        0.38149564864864866        0        
C4        C        0.041667        0.814814        0.38149564864864866        0        
C4        C        0.125        0.814814        0.38149564864864866        0        
C4        C        0.208333        0.814814        0.38149564864864866        0        
C4        C        0.291667        0.814814        0.38149564864864866        0        
C4        C        0.375        0.814814        0.38149564864864866        0        
C4        C        0.458333        0.814814        0.38149564864864866        0        
C4        C        0.541667        0.814814        0.38149564864864866        0        
C4        C        0.625        0.814814        0.38149564864864866        0        
C4        C        0.708333        0.814814        0.38149564864864866        0        
C4        C        0.7916670000000001        0.814814        0.38149564864864866        0        
C4        C        0.875        0.814814        0.38149564864864866        0        
C4        C        0.958333        0.814814        0.38149564864864866        0        
C1        C        0.0        0.907408        0.38149564864864866        0        
C1        C        0.083333        0.907408        0.38149564864864866        0        
C1        C        0.166667        0.907408        0.38149564864864866        0        
C1        C        0.25        0.907408        0.38149564864864866        0        
C1        C        0.333333        0.907408        0.38149564864864866        0        
C1        C        0.416667        0.907408        0.38149564864864866        0        
C1        C        0.5        0.907408        0.38149564864864866        0        
C1        C        0.583333        0.907408        0.38149564864864866        0        
C1        C        0.666667        0.907408        0.38149564864864866        0        
C_FG        C        0.75        0.907408        0.38149564864864866        0.2        
C1        C        0.833333        0.907408        0.38149564864864866        0        
C_FG        C        0.916667        0.907408        0.38149564864864866        0.2        
C2        C        0.041667        0.962963        0.38149564864864866        0        
C2        C        0.125        0.962963        0.38149564864864866        0        
C2        C        0.208333        0.962963        0.38149564864864866        0        
C2        C        0.291667        0.962963        0.38149564864864866        0        
C2        C        0.375        0.962963        0.38149564864864866        0        
C2        C        0.458333        0.962963        0.38149564864864866        0        
C2        C        0.541667        0.962963        0.38149564864864866        0        
C2        C        0.625        0.962963        0.38149564864864866        0        
C2        C        0.708333        0.962963        0.38149564864864866        0        
C2        C        0.7916670000000001        0.962963        0.38149564864864866        0        
C2        C        0.875        0.962963        0.38149564864864866        0        
C2        C        0.958333        0.962963        0.38149564864864866        0        
C3        C        0.0        0.9814809999999999        0.38149564864864866        0        
C3        C        0.083333        0.9814809999999999        0.38149564864864866        0        
C3        C        0.166667        0.9814809999999999        0.38149564864864866        0        
C3        C        0.25        0.9814809999999999        0.38149564864864866        0        
C3        C        0.333333        0.9814809999999999        0.38149564864864866        0        
C3        C        0.416667        0.9814809999999999        0.38149564864864866        0        
C3        C        0.5        0.9814809999999999        0.38149564864864866        0        
C3        C        0.583333        0.9814809999999999        0.38149564864864866        0        
C3        C        0.666667        0.9814809999999999        0.38149564864864866        0        
C3        C        0.75        0.9814809999999999        0.38149564864864866        0        
C3        C        0.833333        0.9814809999999999        0.38149564864864866        0        
C3        C        0.916667        0.9814809999999999        0.38149564864864866        0        
C4        C        0.041667        0.925925        0.38149564864864866        0        
C4        C        0.125        0.925925        0.38149564864864866        0        
C4        C        0.208333        0.925925        0.38149564864864866        0        
C4        C        0.291667        0.925925        0.38149564864864866        0        
C4        C        0.375        0.925925        0.38149564864864866        0        
C4        C        0.458333        0.925925        0.38149564864864866        0        
C4        C        0.541667        0.925925        0.38149564864864866        0        
C4        C        0.625        0.925925        0.38149564864864866        0        
C4        C        0.708333        0.925925        0.38149564864864866        0        
C4        C        0.7916670000000001        0.925925        0.38149564864864866        0        
C4        C        0.875        0.925925        0.38149564864864866        0        
C4        C        0.958333        0.925925        0.38149564864864866        0        
O_OH        O        0.75        0.018519        0.015144099099099096        -0.64        
O_OH        O        0.75        0.12963        0.015144099099099096        -0.64        
O_OH        O        0.75        0.24074099999999998        0.015144099099099096        -0.64        
O_OH        O        0.75        0.351852        0.015144099099099096        -0.64        
O_OH        O        0.75        0.46296300000000007        0.015144099099099096        -0.64        
O_OH        O        0.75        0.574075        0.015144099099099096        -0.64        
O_OH        O        0.916667        0.018519        0.015144099099099096        -0.64        
O_OH        O        0.916667        0.12963        0.015144099099099096        -0.64        
O_OH        O        0.916667        0.24074099999999998        0.015144099099099096        -0.64        
O_OH        O        0.916667        0.351852        0.015144099099099096        -0.64        
O_OH        O        0.916667        0.46296300000000007        0.015144099099099096        -0.64        
O_OH        O        0.916667        0.574075        0.015144099099099096        -0.64        
O_OH        O        0.75        0.685186        0.015144099099099096        -0.64        
O_OH        O        0.916667        0.685186        0.015144099099099096        -0.64        
O_OH        O        0.75        0.796297        0.015144099099099096        -0.64        
O_OH        O        0.916667        0.796297        0.015144099099099096        -0.64        
O_OH        O        0.75        0.907408        0.015144099099099096        -0.64        
O_OH        O        0.916667        0.907408        0.015144099099099096        -0.64        
O_OH        O        0.75        0.018519        0.44604499999999997        -0.64        
O_OH        O        0.75        0.12963        0.44604499999999997        -0.64        
O_OH        O        0.75        0.24074099999999998        0.44604499999999997        -0.64        
O_OH        O        0.75        0.351852        0.44604499999999997        -0.64        
O_OH        O        0.75        0.46296300000000007        0.44604499999999997        -0.64        
O_OH        O        0.75        0.574075        0.44604499999999997        -0.64        
O_OH        O        0.916667        0.018519        0.44604499999999997        -0.64        
O_OH        O        0.916667        0.12963        0.44604499999999997        -0.64        
O_OH        O        0.916667        0.24074099999999998        0.44604499999999997        -0.64        
O_OH        O        0.916667        0.351852        0.44604499999999997        -0.64        
O_OH        O        0.916667        0.46296300000000007        0.44604499999999997        -0.64        
O_OH        O        0.916667        0.574075        0.44604499999999997        -0.64        
O_OH        O        0.75        0.685186        0.44604499999999997        -0.64        
O_OH        O        0.916667        0.685186        0.44604499999999997        -0.64        
O_OH        O        0.75        0.796297        0.44604499999999997        -0.64        
O_OH        O        0.916667        0.796297        0.44604499999999997        -0.64        
O_OH        O        0.75        0.907408        0.44604499999999997        -0.64        
O_OH        O        0.916667        0.907408        0.44604499999999997        -0.64        
H_OH        H        0.7804465136450766        0.01923933760097339        0.0        0.44        
H_OH        H        0.770521540961682        0.14696218572552733        0.0        0.44        
H_OH        H        0.7195651956717003        0.24171130946812033        0.0        0.44        
H_OH        H        0.724373558102656        0.36453055629958925        0.0        0.44        
H_OH        H        0.7207069860550022        0.4693949797008445        0.0        0.44        
H_OH        H        0.7547002454384012        0.5972475574828671        0.0        0.44        
H_OH        H        0.905646351938627        0.04038364385693517        0.0        0.44        
H_OH        H        0.909704759652203        0.152462615682508        0.0        0.44        
H_OH        H        0.9450768977100804        0.2492014905907455        0.0        0.44        
H_OH        H        0.9172899414420982        0.37530054583164013        0.0        0.44        
H_OH        H        0.9422854558106342        0.47565112051976133        0.0        0.44        
H_OH        H        0.9030479081847044        0.5950537242300878        0.0        0.44        
H_OH        H        0.7455527938211041        0.7083881468287656        0.0        0.44        
H_OH        H        0.8885602580911006        0.6942268530492537        0.0        0.44        
H_OH        H        0.7293375358956102        0.8135296440457446        0.0        0.44        
H_OH        H        0.8862464099135818        0.7975029454001598        0.0        0.44        
H_OH        H        0.7337178533679415        0.9272297256668786        0.0        0.44        
H_OH        H        0.8898890485061088        0.9185870920487652        0.0        0.44        
H_OH        H        0.7211804781281657        0.026113900012780907        0.4611890990990991        0.44        
H_OH        H        0.7374605960602659        0.1510040522468514        0.4611890990990991        0.44        
H_OH        H        0.76557790329541        0.2608954590262927        0.4611890990990991        0.44        
H_OH        H        0.7199373900756071        0.3556322225710489        0.4611890990990991        0.44        
H_OH        H        0.7196348053471637        0.4648205538464399        0.4611890990990991        0.44        
H_OH        H        0.7804544694673442        0.5745563012820736        0.4611890990990991        0.44        
H_OH        H        0.939429263717003        0.03410450859328642        0.4611890990990991        0.44        
H_OH        H        0.8941031922077426        0.1453856560675568        0.4611890990990991        0.44        
H_OH        H        0.924739625888439        0.26335584861722855        0.4611890990990991        0.44        
H_OH        H        0.9278479292852563        0.3736683488235697        0.4611890990990991        0.44        
H_OH        H        0.9224610364383926        0.48598826041650284        0.4611890990990991        0.44        
H_OH        H        0.8958892775267694        0.5912252909909118        0.4611890990990991        0.44        
H_OH        H        0.7259318486652425        0.6995614494322885        0.4611890990990991        0.44        
H_OH        H        0.925029919311746        0.7077382264875204        0.4611890990990991        0.44        
H_OH        H        0.7422453777290575        0.8189777220394012        0.4611890990990991        0.44        
H_OH        H        0.9090423908009364        0.8190038384388062        0.4611890990990991        0.44        
H_OH        H        0.7327905229842867        0.9267597152752832        0.4611890990990991        0.44        
H_OH        H        0.8907579568643733        0.919741363369499        0.4611890990990991        0.44        
