data_graphite_ortho

_audit_creation_method RASPA-1.0
_audit_creation_date 2012-2-3
_audit_author_name 'David Dubbeldam'

_cell_length_a    39.36    
_cell_length_b    38.34    
_cell_length_c    15.6    
_cell_angle_alpha 90
_cell_angle_beta  90
_cell_angle_gamma 90
_cell_volume      23541.37      

_symmetry_cell_setting          triclinic
_symmetry_space_group_name_Hall 'P 1'
_symmetry_space_group_name_H-M  'P 1'
_symmetry_Int_Tables_number     1

_symmetry_equiv_pos_as_xyz 'x,y,z'

loop_
_atom_site_label
_atom_site_type_symbol
_atom_site_fract_x
_atom_site_fract_y
_atom_site_fract_z
_atom_site_charge
C_FG        C        0.0        0.018519        0.11341019230769231        0.2        
C2        C        0.03125        0.074075        0.11341019230769231        0        
C3        C        0.0        0.092592        0.11341019230769231        0        
C4        C        0.03125        0.037037        0.11341019230769231        0        
C1        C        0.0        0.12963        0.11341019230769231        0        
C2        C        0.03125        0.185185        0.11341019230769231        0        
C3        C        0.0        0.203703        0.11341019230769231        0        
C4        C        0.03125        0.148148        0.11341019230769231        0        
C_FG        C        0.0        0.24074099999999998        0.11341019230769231        0.2        
C2        C        0.03125        0.296297        0.11341019230769231        0        
C3        C        0.0        0.314815        0.11341019230769231        0        
C4        C        0.03125        0.259259        0.11341019230769231        0        
C1        C        0.0        0.351852        0.11341019230769231        0        
C2        C        0.03125        0.407408        0.11341019230769231        0        
C3        C        0.0        0.42592500000000005        0.11341019230769231        0        
C4        C        0.03125        0.37037        0.11341019230769231        0        
C_FG        C        0.0        0.46296300000000007        0.11341019230769231        0.2        
C2        C        0.03125        0.518519        0.11341019230769231        0        
C3        C        0.0        0.537037        0.11341019230769231        0        
C4        C        0.03125        0.481481        0.11341019230769231        0        
C1        C        0.0        0.574075        0.11341019230769231        0        
C2        C        0.03125        0.62963        0.11341019230769231        0        
C3        C        0.0        0.648148        0.11341019230769231        0        
C4        C        0.03125        0.592592        0.11341019230769231        0        
C1        C        0.0625        0.018519        0.11341019230769231        0        
C2        C        0.09375        0.074075        0.11341019230769231        0        
C3        C        0.0625        0.092592        0.11341019230769231        0        
C4        C        0.09375        0.037037        0.11341019230769231        0        
C1        C        0.0625        0.12963        0.11341019230769231        0        
C2        C        0.09375        0.185185        0.11341019230769231        0        
C3        C        0.0625        0.203703        0.11341019230769231        0        
C4        C        0.09375        0.148148        0.11341019230769231        0        
C1        C        0.0625        0.24074099999999998        0.11341019230769231        0        
C2        C        0.09375        0.296297        0.11341019230769231        0        
C3        C        0.0625        0.314815        0.11341019230769231        0        
C4        C        0.09375        0.259259        0.11341019230769231        0        
C1        C        0.0625        0.351852        0.11341019230769231        0        
C2        C        0.09375        0.407408        0.11341019230769231        0        
C3        C        0.0625        0.42592500000000005        0.11341019230769231        0        
C4        C        0.09375        0.37037        0.11341019230769231        0        
C1        C        0.0625        0.46296300000000007        0.11341019230769231        0        
C2        C        0.09375        0.518519        0.11341019230769231        0        
C3        C        0.0625        0.537037        0.11341019230769231        0        
C4        C        0.09375        0.481481        0.11341019230769231        0        
C1        C        0.0625        0.574075        0.11341019230769231        0        
C2        C        0.09375        0.62963        0.11341019230769231        0        
C3        C        0.0625        0.648148        0.11341019230769231        0        
C4        C        0.09375        0.592592        0.11341019230769231        0        
C1        C        0.125        0.018519        0.11341019230769231        0        
C2        C        0.15625        0.074075        0.11341019230769231        0        
C3        C        0.125        0.092592        0.11341019230769231        0        
C4        C        0.15625        0.037037        0.11341019230769231        0        
C1        C        0.125        0.12963        0.11341019230769231        0        
C2        C        0.15625        0.185185        0.11341019230769231        0        
C3        C        0.125        0.203703        0.11341019230769231        0        
C4        C        0.15625        0.148148        0.11341019230769231        0        
C1        C        0.125        0.24074099999999998        0.11341019230769231        0        
C2        C        0.15625        0.296297        0.11341019230769231        0        
C3        C        0.125        0.314815        0.11341019230769231        0        
C4        C        0.15625        0.259259        0.11341019230769231        0        
C1        C        0.125        0.351852        0.11341019230769231        0        
C2        C        0.15625        0.407408        0.11341019230769231        0        
C3        C        0.125        0.42592500000000005        0.11341019230769231        0        
C4        C        0.15625        0.37037        0.11341019230769231        0        
C1        C        0.125        0.46296300000000007        0.11341019230769231        0        
C2        C        0.15625        0.518519        0.11341019230769231        0        
C3        C        0.125        0.537037        0.11341019230769231        0        
C4        C        0.15625        0.481481        0.11341019230769231        0        
C1        C        0.125        0.574075        0.11341019230769231        0        
C2        C        0.15625        0.62963        0.11341019230769231        0        
C3        C        0.125        0.648148        0.11341019230769231        0        
C4        C        0.15625        0.592592        0.11341019230769231        0        
C_FG        C        0.1875        0.018519        0.11341019230769231        0.2        
C2        C        0.21875        0.074075        0.11341019230769231        0        
C3        C        0.1875        0.092592        0.11341019230769231        0        
C4        C        0.21875        0.037037        0.11341019230769231        0        
C1        C        0.1875        0.12963        0.11341019230769231        0        
C2        C        0.21875        0.185185        0.11341019230769231        0        
C3        C        0.1875        0.203703        0.11341019230769231        0        
C4        C        0.21875        0.148148        0.11341019230769231        0        
C_FG        C        0.1875        0.24074099999999998        0.11341019230769231        0.2        
C2        C        0.21875        0.296297        0.11341019230769231        0        
C3        C        0.1875        0.314815        0.11341019230769231        0        
C4        C        0.21875        0.259259        0.11341019230769231        0        
C1        C        0.1875        0.351852        0.11341019230769231        0        
C2        C        0.21875        0.407408        0.11341019230769231        0        
C3        C        0.1875        0.42592500000000005        0.11341019230769231        0        
C4        C        0.21875        0.37037        0.11341019230769231        0        
C_FG        C        0.1875        0.46296300000000007        0.11341019230769231        0.2        
C2        C        0.21875        0.518519        0.11341019230769231        0        
C3        C        0.1875        0.537037        0.11341019230769231        0        
C4        C        0.21875        0.481481        0.11341019230769231        0        
C1        C        0.1875        0.574075        0.11341019230769231        0        
C2        C        0.21875        0.62963        0.11341019230769231        0        
C3        C        0.1875        0.648148        0.11341019230769231        0        
C4        C        0.21875        0.592592        0.11341019230769231        0        
C1        C        0.25        0.018519        0.11341019230769231        0        
C2        C        0.28125        0.074075        0.11341019230769231        0        
C3        C        0.25        0.092592        0.11341019230769231        0        
C4        C        0.28125        0.037037        0.11341019230769231        0        
C1        C        0.25        0.12963        0.11341019230769231        0        
C2        C        0.28125        0.185185        0.11341019230769231        0        
C3        C        0.25        0.203703        0.11341019230769231        0        
C4        C        0.28125        0.148148        0.11341019230769231        0        
C1        C        0.25        0.24074099999999998        0.11341019230769231        0        
C2        C        0.28125        0.296297        0.11341019230769231        0        
C3        C        0.25        0.314815        0.11341019230769231        0        
C4        C        0.28125        0.259259        0.11341019230769231        0        
C1        C        0.25        0.351852        0.11341019230769231        0        
C2        C        0.28125        0.407408        0.11341019230769231        0        
C3        C        0.25        0.42592500000000005        0.11341019230769231        0        
C4        C        0.28125        0.37037        0.11341019230769231        0        
C1        C        0.25        0.46296300000000007        0.11341019230769231        0        
C2        C        0.28125        0.518519        0.11341019230769231        0        
C3        C        0.25        0.537037        0.11341019230769231        0        
C4        C        0.28125        0.481481        0.11341019230769231        0        
C1        C        0.25        0.574075        0.11341019230769231        0        
C2        C        0.28125        0.62963        0.11341019230769231        0        
C3        C        0.25        0.648148        0.11341019230769231        0        
C4        C        0.28125        0.592592        0.11341019230769231        0        
C1        C        0.3125        0.018519        0.11341019230769231        0        
C2        C        0.34375        0.074075        0.11341019230769231        0        
C3        C        0.3125        0.092592        0.11341019230769231        0        
C4        C        0.34375        0.037037        0.11341019230769231        0        
C1        C        0.3125        0.12963        0.11341019230769231        0        
C2        C        0.34375        0.185185        0.11341019230769231        0        
C3        C        0.3125        0.203703        0.11341019230769231        0        
C4        C        0.34375        0.148148        0.11341019230769231        0        
C1        C        0.3125        0.24074099999999998        0.11341019230769231        0        
C2        C        0.34375        0.296297        0.11341019230769231        0        
C3        C        0.3125        0.314815        0.11341019230769231        0        
C4        C        0.34375        0.259259        0.11341019230769231        0        
C1        C        0.3125        0.351852        0.11341019230769231        0        
C2        C        0.34375        0.407408        0.11341019230769231        0        
C3        C        0.3125        0.42592500000000005        0.11341019230769231        0        
C4        C        0.34375        0.37037        0.11341019230769231        0        
C1        C        0.3125        0.46296300000000007        0.11341019230769231        0        
C2        C        0.34375        0.518519        0.11341019230769231        0        
C3        C        0.3125        0.537037        0.11341019230769231        0        
C4        C        0.34375        0.481481        0.11341019230769231        0        
C1        C        0.3125        0.574075        0.11341019230769231        0        
C2        C        0.34375        0.62963        0.11341019230769231        0        
C3        C        0.3125        0.648148        0.11341019230769231        0        
C4        C        0.34375        0.592592        0.11341019230769231        0        
C_FG        C        0.375        0.018519        0.11341019230769231        0.2        
C2        C        0.40625        0.074075        0.11341019230769231        0        
C3        C        0.375        0.092592        0.11341019230769231        0        
C4        C        0.40625        0.037037        0.11341019230769231        0        
C1        C        0.375        0.12963        0.11341019230769231        0        
C2        C        0.40625        0.185185        0.11341019230769231        0        
C3        C        0.375        0.203703        0.11341019230769231        0        
C4        C        0.40625        0.148148        0.11341019230769231        0        
C_FG        C        0.375        0.24074099999999998        0.11341019230769231        0.2        
C2        C        0.40625        0.296297        0.11341019230769231        0        
C3        C        0.375        0.314815        0.11341019230769231        0        
C4        C        0.40625        0.259259        0.11341019230769231        0        
C1        C        0.375        0.351852        0.11341019230769231        0        
C2        C        0.40625        0.407408        0.11341019230769231        0        
C3        C        0.375        0.42592500000000005        0.11341019230769231        0        
C4        C        0.40625        0.37037        0.11341019230769231        0        
C_FG        C        0.375        0.46296300000000007        0.11341019230769231        0.2        
C2        C        0.40625        0.518519        0.11341019230769231        0        
C3        C        0.375        0.537037        0.11341019230769231        0        
C4        C        0.40625        0.481481        0.11341019230769231        0        
C1        C        0.375        0.574075        0.11341019230769231        0        
C2        C        0.40625        0.62963        0.11341019230769231        0        
C3        C        0.375        0.648148        0.11341019230769231        0        
C4        C        0.40625        0.592592        0.11341019230769231        0        
C1        C        0.4375        0.018519        0.11341019230769231        0        
C2        C        0.46875        0.074075        0.11341019230769231        0        
C3        C        0.4375        0.092592        0.11341019230769231        0        
C4        C        0.46875        0.037037        0.11341019230769231        0        
C1        C        0.4375        0.12963        0.11341019230769231        0        
C2        C        0.46875        0.185185        0.11341019230769231        0        
C3        C        0.4375        0.203703        0.11341019230769231        0        
C4        C        0.46875        0.148148        0.11341019230769231        0        
C1        C        0.4375        0.24074099999999998        0.11341019230769231        0        
C2        C        0.46875        0.296297        0.11341019230769231        0        
C3        C        0.4375        0.314815        0.11341019230769231        0        
C4        C        0.46875        0.259259        0.11341019230769231        0        
C1        C        0.4375        0.351852        0.11341019230769231        0        
C2        C        0.46875        0.407408        0.11341019230769231        0        
C3        C        0.4375        0.42592500000000005        0.11341019230769231        0        
C4        C        0.46875        0.37037        0.11341019230769231        0        
C1        C        0.4375        0.46296300000000007        0.11341019230769231        0        
C2        C        0.46875        0.518519        0.11341019230769231        0        
C3        C        0.4375        0.537037        0.11341019230769231        0        
C4        C        0.46875        0.481481        0.11341019230769231        0        
C1        C        0.4375        0.574075        0.11341019230769231        0        
C2        C        0.46875        0.62963        0.11341019230769231        0        
C3        C        0.4375        0.648148        0.11341019230769231        0        
C4        C        0.46875        0.592592        0.11341019230769231        0        
C1        C        0.5        0.018519        0.11341019230769231        0        
C2        C        0.53125        0.074075        0.11341019230769231        0        
C3        C        0.5        0.092592        0.11341019230769231        0        
C4        C        0.53125        0.037037        0.11341019230769231        0        
C1        C        0.5        0.12963        0.11341019230769231        0        
C2        C        0.53125        0.185185        0.11341019230769231        0        
C3        C        0.5        0.203703        0.11341019230769231        0        
C4        C        0.53125        0.148148        0.11341019230769231        0        
C1        C        0.5        0.24074099999999998        0.11341019230769231        0        
C2        C        0.53125        0.296297        0.11341019230769231        0        
C3        C        0.5        0.314815        0.11341019230769231        0        
C4        C        0.53125        0.259259        0.11341019230769231        0        
C1        C        0.5        0.351852        0.11341019230769231        0        
C2        C        0.53125        0.407408        0.11341019230769231        0        
C3        C        0.5        0.42592500000000005        0.11341019230769231        0        
C4        C        0.53125        0.37037        0.11341019230769231        0        
C1        C        0.5        0.46296300000000007        0.11341019230769231        0        
C2        C        0.53125        0.518519        0.11341019230769231        0        
C3        C        0.5        0.537037        0.11341019230769231        0        
C4        C        0.53125        0.481481        0.11341019230769231        0        
C1        C        0.5        0.574075        0.11341019230769231        0        
C2        C        0.53125        0.62963        0.11341019230769231        0        
C3        C        0.5        0.648148        0.11341019230769231        0        
C4        C        0.53125        0.592592        0.11341019230769231        0        
C_FG        C        0.5625        0.018519        0.11341019230769231        0.2        
C2        C        0.59375        0.074075        0.11341019230769231        0        
C3        C        0.5625        0.092592        0.11341019230769231        0        
C4        C        0.59375        0.037037        0.11341019230769231        0        
C1        C        0.5625        0.12963        0.11341019230769231        0        
C2        C        0.59375        0.185185        0.11341019230769231        0        
C3        C        0.5625        0.203703        0.11341019230769231        0        
C4        C        0.59375        0.148148        0.11341019230769231        0        
C_FG        C        0.5625        0.24074099999999998        0.11341019230769231        0.2        
C2        C        0.59375        0.296297        0.11341019230769231        0        
C3        C        0.5625        0.314815        0.11341019230769231        0        
C4        C        0.59375        0.259259        0.11341019230769231        0        
C1        C        0.5625        0.351852        0.11341019230769231        0        
C2        C        0.59375        0.407408        0.11341019230769231        0        
C3        C        0.5625        0.42592500000000005        0.11341019230769231        0        
C4        C        0.59375        0.37037        0.11341019230769231        0        
C_FG        C        0.5625        0.46296300000000007        0.11341019230769231        0.2        
C2        C        0.59375        0.518519        0.11341019230769231        0        
C3        C        0.5625        0.537037        0.11341019230769231        0        
C4        C        0.59375        0.481481        0.11341019230769231        0        
C1        C        0.5625        0.574075        0.11341019230769231        0        
C2        C        0.59375        0.62963        0.11341019230769231        0        
C3        C        0.5625        0.648148        0.11341019230769231        0        
C4        C        0.59375        0.592592        0.11341019230769231        0        
C1        C        0.625        0.018519        0.11341019230769231        0        
C2        C        0.65625        0.074075        0.11341019230769231        0        
C3        C        0.625        0.092592        0.11341019230769231        0        
C4        C        0.65625        0.037037        0.11341019230769231        0        
C1        C        0.625        0.12963        0.11341019230769231        0        
C2        C        0.65625        0.185185        0.11341019230769231        0        
C3        C        0.625        0.203703        0.11341019230769231        0        
C4        C        0.65625        0.148148        0.11341019230769231        0        
C1        C        0.625        0.24074099999999998        0.11341019230769231        0        
C2        C        0.65625        0.296297        0.11341019230769231        0        
C3        C        0.625        0.314815        0.11341019230769231        0        
C4        C        0.65625        0.259259        0.11341019230769231        0        
C1        C        0.625        0.351852        0.11341019230769231        0        
C2        C        0.65625        0.407408        0.11341019230769231        0        
C3        C        0.625        0.42592500000000005        0.11341019230769231        0        
C4        C        0.65625        0.37037        0.11341019230769231        0        
C1        C        0.625        0.46296300000000007        0.11341019230769231        0        
C2        C        0.65625        0.518519        0.11341019230769231        0        
C3        C        0.625        0.537037        0.11341019230769231        0        
C4        C        0.65625        0.481481        0.11341019230769231        0        
C1        C        0.625        0.574075        0.11341019230769231        0        
C2        C        0.65625        0.62963        0.11341019230769231        0        
C3        C        0.625        0.648148        0.11341019230769231        0        
C4        C        0.65625        0.592592        0.11341019230769231        0        
C1        C        0.6875        0.018519        0.11341019230769231        0        
C2        C        0.71875        0.074075        0.11341019230769231        0        
C3        C        0.6875        0.092592        0.11341019230769231        0        
C4        C        0.71875        0.037037        0.11341019230769231        0        
C1        C        0.6875        0.12963        0.11341019230769231        0        
C2        C        0.71875        0.185185        0.11341019230769231        0        
C3        C        0.6875        0.203703        0.11341019230769231        0        
C4        C        0.71875        0.148148        0.11341019230769231        0        
C1        C        0.6875        0.24074099999999998        0.11341019230769231        0        
C2        C        0.71875        0.296297        0.11341019230769231        0        
C3        C        0.6875        0.314815        0.11341019230769231        0        
C4        C        0.71875        0.259259        0.11341019230769231        0        
C1        C        0.6875        0.351852        0.11341019230769231        0        
C2        C        0.71875        0.407408        0.11341019230769231        0        
C3        C        0.6875        0.42592500000000005        0.11341019230769231        0        
C4        C        0.71875        0.37037        0.11341019230769231        0        
C1        C        0.6875        0.46296300000000007        0.11341019230769231        0        
C2        C        0.71875        0.518519        0.11341019230769231        0        
C3        C        0.6875        0.537037        0.11341019230769231        0        
C4        C        0.71875        0.481481        0.11341019230769231        0        
C1        C        0.6875        0.574075        0.11341019230769231        0        
C2        C        0.71875        0.62963        0.11341019230769231        0        
C3        C        0.6875        0.648148        0.11341019230769231        0        
C4        C        0.71875        0.592592        0.11341019230769231        0        
C_FG        C        0.75        0.018519        0.11341019230769231        0.2        
C2        C        0.78125        0.074075        0.11341019230769231        0        
C3        C        0.75        0.092592        0.11341019230769231        0        
C4        C        0.78125        0.037037        0.11341019230769231        0        
C1        C        0.75        0.12963        0.11341019230769231        0        
C2        C        0.78125        0.185185        0.11341019230769231        0        
C3        C        0.75        0.203703        0.11341019230769231        0        
C4        C        0.78125        0.148148        0.11341019230769231        0        
C_FG        C        0.75        0.24074099999999998        0.11341019230769231        0.2        
C2        C        0.78125        0.296297        0.11341019230769231        0        
C3        C        0.75        0.314815        0.11341019230769231        0        
C4        C        0.78125        0.259259        0.11341019230769231        0        
C1        C        0.75        0.351852        0.11341019230769231        0        
C2        C        0.78125        0.407408        0.11341019230769231        0        
C3        C        0.75        0.42592500000000005        0.11341019230769231        0        
C4        C        0.78125        0.37037        0.11341019230769231        0        
C_FG        C        0.75        0.46296300000000007        0.11341019230769231        0.2        
C2        C        0.78125        0.518519        0.11341019230769231        0        
C3        C        0.75        0.537037        0.11341019230769231        0        
C4        C        0.78125        0.481481        0.11341019230769231        0        
C1        C        0.75        0.574075        0.11341019230769231        0        
C2        C        0.78125        0.62963        0.11341019230769231        0        
C3        C        0.75        0.648148        0.11341019230769231        0        
C4        C        0.78125        0.592592        0.11341019230769231        0        
C1        C        0.8125        0.018519        0.11341019230769231        0        
C2        C        0.84375        0.074075        0.11341019230769231        0        
C3        C        0.8125        0.092592        0.11341019230769231        0        
C4        C        0.84375        0.037037        0.11341019230769231        0        
C1        C        0.8125        0.12963        0.11341019230769231        0        
C2        C        0.84375        0.185185        0.11341019230769231        0        
C3        C        0.8125        0.203703        0.11341019230769231        0        
C4        C        0.84375        0.148148        0.11341019230769231        0        
C1        C        0.8125        0.24074099999999998        0.11341019230769231        0        
C2        C        0.84375        0.296297        0.11341019230769231        0        
C3        C        0.8125        0.314815        0.11341019230769231        0        
C4        C        0.84375        0.259259        0.11341019230769231        0        
C1        C        0.8125        0.351852        0.11341019230769231        0        
C2        C        0.84375        0.407408        0.11341019230769231        0        
C3        C        0.8125        0.42592500000000005        0.11341019230769231        0        
C4        C        0.84375        0.37037        0.11341019230769231        0        
C1        C        0.8125        0.46296300000000007        0.11341019230769231        0        
C2        C        0.84375        0.518519        0.11341019230769231        0        
C3        C        0.8125        0.537037        0.11341019230769231        0        
C4        C        0.84375        0.481481        0.11341019230769231        0        
C1        C        0.8125        0.574075        0.11341019230769231        0        
C2        C        0.84375        0.62963        0.11341019230769231        0        
C3        C        0.8125        0.648148        0.11341019230769231        0        
C4        C        0.84375        0.592592        0.11341019230769231        0        
C1        C        0.875        0.018519        0.11341019230769231        0        
C2        C        0.9062500000000001        0.074075        0.11341019230769231        0        
C3        C        0.875        0.092592        0.11341019230769231        0        
C4        C        0.9062500000000001        0.037037        0.11341019230769231        0        
C1        C        0.875        0.12963        0.11341019230769231        0        
C2        C        0.9062500000000001        0.185185        0.11341019230769231        0        
C3        C        0.875        0.203703        0.11341019230769231        0        
C4        C        0.9062500000000001        0.148148        0.11341019230769231        0        
C1        C        0.875        0.24074099999999998        0.11341019230769231        0        
C2        C        0.9062500000000001        0.296297        0.11341019230769231        0        
C3        C        0.875        0.314815        0.11341019230769231        0        
C4        C        0.9062500000000001        0.259259        0.11341019230769231        0        
C1        C        0.875        0.351852        0.11341019230769231        0        
C2        C        0.9062500000000001        0.407408        0.11341019230769231        0        
C3        C        0.875        0.42592500000000005        0.11341019230769231        0        
C4        C        0.9062500000000001        0.37037        0.11341019230769231        0        
C1        C        0.875        0.46296300000000007        0.11341019230769231        0        
C2        C        0.9062500000000001        0.518519        0.11341019230769231        0        
C3        C        0.875        0.537037        0.11341019230769231        0        
C4        C        0.9062500000000001        0.481481        0.11341019230769231        0        
C1        C        0.875        0.574075        0.11341019230769231        0        
C2        C        0.9062500000000001        0.62963        0.11341019230769231        0        
C3        C        0.875        0.648148        0.11341019230769231        0        
C4        C        0.9062500000000001        0.592592        0.11341019230769231        0        
C_FG        C        0.9375        0.018519        0.11341019230769231        0.2        
C2        C        0.9687500000000001        0.074075        0.11341019230769231        0        
C3        C        0.9375        0.092592        0.11341019230769231        0        
C4        C        0.9687500000000001        0.037037        0.11341019230769231        0        
C1        C        0.9375        0.12963        0.11341019230769231        0        
C2        C        0.9687500000000001        0.185185        0.11341019230769231        0        
C3        C        0.9375        0.203703        0.11341019230769231        0        
C4        C        0.9687500000000001        0.148148        0.11341019230769231        0        
C_FG        C        0.9375        0.24074099999999998        0.11341019230769231        0.2        
C2        C        0.9687500000000001        0.296297        0.11341019230769231        0        
C3        C        0.9375        0.314815        0.11341019230769231        0        
C4        C        0.9687500000000001        0.259259        0.11341019230769231        0        
C1        C        0.9375        0.351852        0.11341019230769231        0        
C2        C        0.9687500000000001        0.407408        0.11341019230769231        0        
C3        C        0.9375        0.42592500000000005        0.11341019230769231        0        
C4        C        0.9687500000000001        0.37037        0.11341019230769231        0        
C_FG        C        0.9375        0.46296300000000007        0.11341019230769231        0.2        
C2        C        0.9687500000000001        0.518519        0.11341019230769231        0        
C3        C        0.9375        0.537037        0.11341019230769231        0        
C4        C        0.9687500000000001        0.481481        0.11341019230769231        0        
C1        C        0.9375        0.574075        0.11341019230769231        0        
C2        C        0.9687500000000001        0.62963        0.11341019230769231        0        
C3        C        0.9375        0.648148        0.11341019230769231        0        
C4        C        0.9687500000000001        0.592592        0.11341019230769231        0        
C_FG        C        0.0        0.685186        0.11341019230769231        0.2        
C1        C        0.0625        0.685186        0.11341019230769231        0        
C1        C        0.125        0.685186        0.11341019230769231        0        
C_FG        C        0.1875        0.685186        0.11341019230769231        0.2        
C1        C        0.25        0.685186        0.11341019230769231        0        
C1        C        0.3125        0.685186        0.11341019230769231        0        
C_FG        C        0.375        0.685186        0.11341019230769231        0.2        
C1        C        0.4375        0.685186        0.11341019230769231        0        
C1        C        0.5        0.685186        0.11341019230769231        0        
C_FG        C        0.5625        0.685186        0.11341019230769231        0.2        
C1        C        0.625        0.685186        0.11341019230769231        0        
C1        C        0.6875        0.685186        0.11341019230769231        0        
C_FG        C        0.75        0.685186        0.11341019230769231        0.2        
C1        C        0.8125        0.685186        0.11341019230769231        0        
C1        C        0.875        0.685186        0.11341019230769231        0        
C_FG        C        0.9375        0.685186        0.11341019230769231        0.2        
C2        C        0.03125        0.740741        0.11341019230769231        0        
C2        C        0.09375        0.740741        0.11341019230769231        0        
C2        C        0.15625        0.740741        0.11341019230769231        0        
C2        C        0.21875        0.740741        0.11341019230769231        0        
C2        C        0.28125        0.740741        0.11341019230769231        0        
C2        C        0.34375        0.740741        0.11341019230769231        0        
C2        C        0.40625        0.740741        0.11341019230769231        0        
C2        C        0.46875        0.740741        0.11341019230769231        0        
C2        C        0.53125        0.740741        0.11341019230769231        0        
C2        C        0.59375        0.740741        0.11341019230769231        0        
C2        C        0.65625        0.740741        0.11341019230769231        0        
C2        C        0.71875        0.740741        0.11341019230769231        0        
C2        C        0.78125        0.740741        0.11341019230769231        0        
C2        C        0.84375        0.740741        0.11341019230769231        0        
C2        C        0.9062500000000001        0.740741        0.11341019230769231        0        
C2        C        0.9687500000000001        0.740741        0.11341019230769231        0        
C3        C        0.0        0.759259        0.11341019230769231        0        
C3        C        0.0625        0.759259        0.11341019230769231        0        
C3        C        0.125        0.759259        0.11341019230769231        0        
C3        C        0.1875        0.759259        0.11341019230769231        0        
C3        C        0.25        0.759259        0.11341019230769231        0        
C3        C        0.3125        0.759259        0.11341019230769231        0        
C3        C        0.375        0.759259        0.11341019230769231        0        
C3        C        0.4375        0.759259        0.11341019230769231        0        
C3        C        0.5        0.759259        0.11341019230769231        0        
C3        C        0.5625        0.759259        0.11341019230769231        0        
C3        C        0.625        0.759259        0.11341019230769231        0        
C3        C        0.6875        0.759259        0.11341019230769231        0        
C3        C        0.75        0.759259        0.11341019230769231        0        
C3        C        0.8125        0.759259        0.11341019230769231        0        
C3        C        0.875        0.759259        0.11341019230769231        0        
C3        C        0.9375        0.759259        0.11341019230769231        0        
C4        C        0.03125        0.703703        0.11341019230769231        0        
C4        C        0.09375        0.703703        0.11341019230769231        0        
C4        C        0.15625        0.703703        0.11341019230769231        0        
C4        C        0.21875        0.703703        0.11341019230769231        0        
C4        C        0.28125        0.703703        0.11341019230769231        0        
C4        C        0.34375        0.703703        0.11341019230769231        0        
C4        C        0.40625        0.703703        0.11341019230769231        0        
C4        C        0.46875        0.703703        0.11341019230769231        0        
C4        C        0.53125        0.703703        0.11341019230769231        0        
C4        C        0.59375        0.703703        0.11341019230769231        0        
C4        C        0.65625        0.703703        0.11341019230769231        0        
C4        C        0.71875        0.703703        0.11341019230769231        0        
C4        C        0.78125        0.703703        0.11341019230769231        0        
C4        C        0.84375        0.703703        0.11341019230769231        0        
C4        C        0.9062500000000001        0.703703        0.11341019230769231        0        
C4        C        0.9687500000000001        0.703703        0.11341019230769231        0        
C1        C        0.0        0.796297        0.11341019230769231        0        
C1        C        0.0625        0.796297        0.11341019230769231        0        
C1        C        0.125        0.796297        0.11341019230769231        0        
C1        C        0.1875        0.796297        0.11341019230769231        0        
C1        C        0.25        0.796297        0.11341019230769231        0        
C1        C        0.3125        0.796297        0.11341019230769231        0        
C1        C        0.375        0.796297        0.11341019230769231        0        
C1        C        0.4375        0.796297        0.11341019230769231        0        
C1        C        0.5        0.796297        0.11341019230769231        0        
C1        C        0.5625        0.796297        0.11341019230769231        0        
C1        C        0.625        0.796297        0.11341019230769231        0        
C1        C        0.6875        0.796297        0.11341019230769231        0        
C1        C        0.75        0.796297        0.11341019230769231        0        
C1        C        0.8125        0.796297        0.11341019230769231        0        
C1        C        0.875        0.796297        0.11341019230769231        0        
C1        C        0.9375        0.796297        0.11341019230769231        0        
C2        C        0.03125        0.851852        0.11341019230769231        0        
C2        C        0.09375        0.851852        0.11341019230769231        0        
C2        C        0.15625        0.851852        0.11341019230769231        0        
C2        C        0.21875        0.851852        0.11341019230769231        0        
C2        C        0.28125        0.851852        0.11341019230769231        0        
C2        C        0.34375        0.851852        0.11341019230769231        0        
C2        C        0.40625        0.851852        0.11341019230769231        0        
C2        C        0.46875        0.851852        0.11341019230769231        0        
C2        C        0.53125        0.851852        0.11341019230769231        0        
C2        C        0.59375        0.851852        0.11341019230769231        0        
C2        C        0.65625        0.851852        0.11341019230769231        0        
C2        C        0.71875        0.851852        0.11341019230769231        0        
C2        C        0.78125        0.851852        0.11341019230769231        0        
C2        C        0.84375        0.851852        0.11341019230769231        0        
C2        C        0.9062500000000001        0.851852        0.11341019230769231        0        
C2        C        0.9687500000000001        0.851852        0.11341019230769231        0        
C3        C        0.0        0.87037        0.11341019230769231        0        
C3        C        0.0625        0.87037        0.11341019230769231        0        
C3        C        0.125        0.87037        0.11341019230769231        0        
C3        C        0.1875        0.87037        0.11341019230769231        0        
C3        C        0.25        0.87037        0.11341019230769231        0        
C3        C        0.3125        0.87037        0.11341019230769231        0        
C3        C        0.375        0.87037        0.11341019230769231        0        
C3        C        0.4375        0.87037        0.11341019230769231        0        
C3        C        0.5        0.87037        0.11341019230769231        0        
C3        C        0.5625        0.87037        0.11341019230769231        0        
C3        C        0.625        0.87037        0.11341019230769231        0        
C3        C        0.6875        0.87037        0.11341019230769231        0        
C3        C        0.75        0.87037        0.11341019230769231        0        
C3        C        0.8125        0.87037        0.11341019230769231        0        
C3        C        0.875        0.87037        0.11341019230769231        0        
C3        C        0.9375        0.87037        0.11341019230769231        0        
C4        C        0.03125        0.814814        0.11341019230769231        0        
C4        C        0.09375        0.814814        0.11341019230769231        0        
C4        C        0.15625        0.814814        0.11341019230769231        0        
C4        C        0.21875        0.814814        0.11341019230769231        0        
C4        C        0.28125        0.814814        0.11341019230769231        0        
C4        C        0.34375        0.814814        0.11341019230769231        0        
C4        C        0.40625        0.814814        0.11341019230769231        0        
C4        C        0.46875        0.814814        0.11341019230769231        0        
C4        C        0.53125        0.814814        0.11341019230769231        0        
C4        C        0.59375        0.814814        0.11341019230769231        0        
C4        C        0.65625        0.814814        0.11341019230769231        0        
C4        C        0.71875        0.814814        0.11341019230769231        0        
C4        C        0.78125        0.814814        0.11341019230769231        0        
C4        C        0.84375        0.814814        0.11341019230769231        0        
C4        C        0.9062500000000001        0.814814        0.11341019230769231        0        
C4        C        0.9687500000000001        0.814814        0.11341019230769231        0        
C_FG        C        0.0        0.907408        0.11341019230769231        0.2        
C1        C        0.0625        0.907408        0.11341019230769231        0        
C1        C        0.125        0.907408        0.11341019230769231        0        
C_FG        C        0.1875        0.907408        0.11341019230769231        0.2        
C1        C        0.25        0.907408        0.11341019230769231        0        
C1        C        0.3125        0.907408        0.11341019230769231        0        
C_FG        C        0.375        0.907408        0.11341019230769231        0.2        
C1        C        0.4375        0.907408        0.11341019230769231        0        
C1        C        0.5        0.907408        0.11341019230769231        0        
C_FG        C        0.5625        0.907408        0.11341019230769231        0.2        
C1        C        0.625        0.907408        0.11341019230769231        0        
C1        C        0.6875        0.907408        0.11341019230769231        0        
C_FG        C        0.75        0.907408        0.11341019230769231        0.2        
C1        C        0.8125        0.907408        0.11341019230769231        0        
C1        C        0.875        0.907408        0.11341019230769231        0        
C_FG        C        0.9375        0.907408        0.11341019230769231        0.2        
C2        C        0.03125        0.962963        0.11341019230769231        0        
C2        C        0.09375        0.962963        0.11341019230769231        0        
C2        C        0.15625        0.962963        0.11341019230769231        0        
C2        C        0.21875        0.962963        0.11341019230769231        0        
C2        C        0.28125        0.962963        0.11341019230769231        0        
C2        C        0.34375        0.962963        0.11341019230769231        0        
C2        C        0.40625        0.962963        0.11341019230769231        0        
C2        C        0.46875        0.962963        0.11341019230769231        0        
C2        C        0.53125        0.962963        0.11341019230769231        0        
C2        C        0.59375        0.962963        0.11341019230769231        0        
C2        C        0.65625        0.962963        0.11341019230769231        0        
C2        C        0.71875        0.962963        0.11341019230769231        0        
C2        C        0.78125        0.962963        0.11341019230769231        0        
C2        C        0.84375        0.962963        0.11341019230769231        0        
C2        C        0.9062500000000001        0.962963        0.11341019230769231        0        
C2        C        0.9687500000000001        0.962963        0.11341019230769231        0        
C3        C        0.0        0.9814809999999999        0.11341019230769231        0        
C3        C        0.0625        0.9814809999999999        0.11341019230769231        0        
C3        C        0.125        0.9814809999999999        0.11341019230769231        0        
C3        C        0.1875        0.9814809999999999        0.11341019230769231        0        
C3        C        0.25        0.9814809999999999        0.11341019230769231        0        
C3        C        0.3125        0.9814809999999999        0.11341019230769231        0        
C3        C        0.375        0.9814809999999999        0.11341019230769231        0        
C3        C        0.4375        0.9814809999999999        0.11341019230769231        0        
C3        C        0.5        0.9814809999999999        0.11341019230769231        0        
C3        C        0.5625        0.9814809999999999        0.11341019230769231        0        
C3        C        0.625        0.9814809999999999        0.11341019230769231        0        
C3        C        0.6875        0.9814809999999999        0.11341019230769231        0        
C3        C        0.75        0.9814809999999999        0.11341019230769231        0        
C3        C        0.8125        0.9814809999999999        0.11341019230769231        0        
C3        C        0.875        0.9814809999999999        0.11341019230769231        0        
C3        C        0.9375        0.9814809999999999        0.11341019230769231        0        
C4        C        0.03125        0.925925        0.11341019230769231        0        
C4        C        0.09375        0.925925        0.11341019230769231        0        
C4        C        0.15625        0.925925        0.11341019230769231        0        
C4        C        0.21875        0.925925        0.11341019230769231        0        
C4        C        0.28125        0.925925        0.11341019230769231        0        
C4        C        0.34375        0.925925        0.11341019230769231        0        
C4        C        0.40625        0.925925        0.11341019230769231        0        
C4        C        0.46875        0.925925        0.11341019230769231        0        
C4        C        0.53125        0.925925        0.11341019230769231        0        
C4        C        0.59375        0.925925        0.11341019230769231        0        
C4        C        0.65625        0.925925        0.11341019230769231        0        
C4        C        0.71875        0.925925        0.11341019230769231        0        
C4        C        0.78125        0.925925        0.11341019230769231        0        
C4        C        0.84375        0.925925        0.11341019230769231        0        
C4        C        0.9062500000000001        0.925925        0.11341019230769231        0        
C4        C        0.9687500000000001        0.925925        0.11341019230769231        0        
C1        C        0.0        0.018519        0.3281541923076923        0        
C2        C        0.03125        0.074075        0.3281541923076923        0        
C3        C        0.0        0.092592        0.3281541923076923        0        
C4        C        0.03125        0.037037        0.3281541923076923        0        
C1        C        0.0        0.12963        0.3281541923076923        0        
C2        C        0.03125        0.185185        0.3281541923076923        0        
C3        C        0.0        0.203703        0.3281541923076923        0        
C4        C        0.03125        0.148148        0.3281541923076923        0        
C1        C        0.0        0.24074099999999998        0.3281541923076923        0        
C2        C        0.03125        0.296297        0.3281541923076923        0        
C3        C        0.0        0.314815        0.3281541923076923        0        
C4        C        0.03125        0.259259        0.3281541923076923        0        
C1        C        0.0        0.351852        0.3281541923076923        0        
C2        C        0.03125        0.407408        0.3281541923076923        0        
C3        C        0.0        0.42592500000000005        0.3281541923076923        0        
C4        C        0.03125        0.37037        0.3281541923076923        0        
C1        C        0.0        0.46296300000000007        0.3281541923076923        0        
C2        C        0.03125        0.518519        0.3281541923076923        0        
C3        C        0.0        0.537037        0.3281541923076923        0        
C4        C        0.03125        0.481481        0.3281541923076923        0        
C1        C        0.0        0.574075        0.3281541923076923        0        
C2        C        0.03125        0.62963        0.3281541923076923        0        
C3        C        0.0        0.648148        0.3281541923076923        0        
C4        C        0.03125        0.592592        0.3281541923076923        0        
C1        C        0.0625        0.018519        0.3281541923076923        0        
C2        C        0.09375        0.074075        0.3281541923076923        0        
C3        C        0.0625        0.092592        0.3281541923076923        0        
C4        C        0.09375        0.037037        0.3281541923076923        0        
C1        C        0.0625        0.12963        0.3281541923076923        0        
C2        C        0.09375        0.185185        0.3281541923076923        0        
C3        C        0.0625        0.203703        0.3281541923076923        0        
C4        C        0.09375        0.148148        0.3281541923076923        0        
C1        C        0.0625        0.24074099999999998        0.3281541923076923        0        
C2        C        0.09375        0.296297        0.3281541923076923        0        
C3        C        0.0625        0.314815        0.3281541923076923        0        
C4        C        0.09375        0.259259        0.3281541923076923        0        
C1        C        0.0625        0.351852        0.3281541923076923        0        
C2        C        0.09375        0.407408        0.3281541923076923        0        
C3        C        0.0625        0.42592500000000005        0.3281541923076923        0        
C4        C        0.09375        0.37037        0.3281541923076923        0        
C1        C        0.0625        0.46296300000000007        0.3281541923076923        0        
C2        C        0.09375        0.518519        0.3281541923076923        0        
C3        C        0.0625        0.537037        0.3281541923076923        0        
C4        C        0.09375        0.481481        0.3281541923076923        0        
C1        C        0.0625        0.574075        0.3281541923076923        0        
C2        C        0.09375        0.62963        0.3281541923076923        0        
C3        C        0.0625        0.648148        0.3281541923076923        0        
C4        C        0.09375        0.592592        0.3281541923076923        0        
C1        C        0.125        0.018519        0.3281541923076923        0        
C2        C        0.15625        0.074075        0.3281541923076923        0        
C3        C        0.125        0.092592        0.3281541923076923        0        
C4        C        0.15625        0.037037        0.3281541923076923        0        
C1        C        0.125        0.12963        0.3281541923076923        0        
C2        C        0.15625        0.185185        0.3281541923076923        0        
C3        C        0.125        0.203703        0.3281541923076923        0        
C4        C        0.15625        0.148148        0.3281541923076923        0        
C1        C        0.125        0.24074099999999998        0.3281541923076923        0        
C2        C        0.15625        0.296297        0.3281541923076923        0        
C3        C        0.125        0.314815        0.3281541923076923        0        
C4        C        0.15625        0.259259        0.3281541923076923        0        
C1        C        0.125        0.351852        0.3281541923076923        0        
C2        C        0.15625        0.407408        0.3281541923076923        0        
C3        C        0.125        0.42592500000000005        0.3281541923076923        0        
C4        C        0.15625        0.37037        0.3281541923076923        0        
C1        C        0.125        0.46296300000000007        0.3281541923076923        0        
C2        C        0.15625        0.518519        0.3281541923076923        0        
C3        C        0.125        0.537037        0.3281541923076923        0        
C4        C        0.15625        0.481481        0.3281541923076923        0        
C1        C        0.125        0.574075        0.3281541923076923        0        
C2        C        0.15625        0.62963        0.3281541923076923        0        
C3        C        0.125        0.648148        0.3281541923076923        0        
C4        C        0.15625        0.592592        0.3281541923076923        0        
C1        C        0.1875        0.018519        0.3281541923076923        0        
C2        C        0.21875        0.074075        0.3281541923076923        0        
C3        C        0.1875        0.092592        0.3281541923076923        0        
C4        C        0.21875        0.037037        0.3281541923076923        0        
C1        C        0.1875        0.12963        0.3281541923076923        0        
C2        C        0.21875        0.185185        0.3281541923076923        0        
C3        C        0.1875        0.203703        0.3281541923076923        0        
C4        C        0.21875        0.148148        0.3281541923076923        0        
C1        C        0.1875        0.24074099999999998        0.3281541923076923        0        
C2        C        0.21875        0.296297        0.3281541923076923        0        
C3        C        0.1875        0.314815        0.3281541923076923        0        
C4        C        0.21875        0.259259        0.3281541923076923        0        
C1        C        0.1875        0.351852        0.3281541923076923        0        
C2        C        0.21875        0.407408        0.3281541923076923        0        
C3        C        0.1875        0.42592500000000005        0.3281541923076923        0        
C4        C        0.21875        0.37037        0.3281541923076923        0        
C1        C        0.1875        0.46296300000000007        0.3281541923076923        0        
C2        C        0.21875        0.518519        0.3281541923076923        0        
C3        C        0.1875        0.537037        0.3281541923076923        0        
C4        C        0.21875        0.481481        0.3281541923076923        0        
C1        C        0.1875        0.574075        0.3281541923076923        0        
C2        C        0.21875        0.62963        0.3281541923076923        0        
C3        C        0.1875        0.648148        0.3281541923076923        0        
C4        C        0.21875        0.592592        0.3281541923076923        0        
C1        C        0.25        0.018519        0.3281541923076923        0        
C2        C        0.28125        0.074075        0.3281541923076923        0        
C3        C        0.25        0.092592        0.3281541923076923        0        
C4        C        0.28125        0.037037        0.3281541923076923        0        
C1        C        0.25        0.12963        0.3281541923076923        0        
C2        C        0.28125        0.185185        0.3281541923076923        0        
C3        C        0.25        0.203703        0.3281541923076923        0        
C4        C        0.28125        0.148148        0.3281541923076923        0        
C1        C        0.25        0.24074099999999998        0.3281541923076923        0        
C2        C        0.28125        0.296297        0.3281541923076923        0        
C3        C        0.25        0.314815        0.3281541923076923        0        
C4        C        0.28125        0.259259        0.3281541923076923        0        
C1        C        0.25        0.351852        0.3281541923076923        0        
C2        C        0.28125        0.407408        0.3281541923076923        0        
C3        C        0.25        0.42592500000000005        0.3281541923076923        0        
C4        C        0.28125        0.37037        0.3281541923076923        0        
C1        C        0.25        0.46296300000000007        0.3281541923076923        0        
C2        C        0.28125        0.518519        0.3281541923076923        0        
C3        C        0.25        0.537037        0.3281541923076923        0        
C4        C        0.28125        0.481481        0.3281541923076923        0        
C1        C        0.25        0.574075        0.3281541923076923        0        
C2        C        0.28125        0.62963        0.3281541923076923        0        
C3        C        0.25        0.648148        0.3281541923076923        0        
C4        C        0.28125        0.592592        0.3281541923076923        0        
C1        C        0.3125        0.018519        0.3281541923076923        0        
C2        C        0.34375        0.074075        0.3281541923076923        0        
C3        C        0.3125        0.092592        0.3281541923076923        0        
C4        C        0.34375        0.037037        0.3281541923076923        0        
C1        C        0.3125        0.12963        0.3281541923076923        0        
C2        C        0.34375        0.185185        0.3281541923076923        0        
C3        C        0.3125        0.203703        0.3281541923076923        0        
C4        C        0.34375        0.148148        0.3281541923076923        0        
C1        C        0.3125        0.24074099999999998        0.3281541923076923        0        
C2        C        0.34375        0.296297        0.3281541923076923        0        
C3        C        0.3125        0.314815        0.3281541923076923        0        
C4        C        0.34375        0.259259        0.3281541923076923        0        
C1        C        0.3125        0.351852        0.3281541923076923        0        
C2        C        0.34375        0.407408        0.3281541923076923        0        
C3        C        0.3125        0.42592500000000005        0.3281541923076923        0        
C4        C        0.34375        0.37037        0.3281541923076923        0        
C1        C        0.3125        0.46296300000000007        0.3281541923076923        0        
C2        C        0.34375        0.518519        0.3281541923076923        0        
C3        C        0.3125        0.537037        0.3281541923076923        0        
C4        C        0.34375        0.481481        0.3281541923076923        0        
C1        C        0.3125        0.574075        0.3281541923076923        0        
C2        C        0.34375        0.62963        0.3281541923076923        0        
C3        C        0.3125        0.648148        0.3281541923076923        0        
C4        C        0.34375        0.592592        0.3281541923076923        0        
C1        C        0.375        0.018519        0.3281541923076923        0        
C2        C        0.40625        0.074075        0.3281541923076923        0        
C3        C        0.375        0.092592        0.3281541923076923        0        
C4        C        0.40625        0.037037        0.3281541923076923        0        
C1        C        0.375        0.12963        0.3281541923076923        0        
C2        C        0.40625        0.185185        0.3281541923076923        0        
C3        C        0.375        0.203703        0.3281541923076923        0        
C4        C        0.40625        0.148148        0.3281541923076923        0        
C1        C        0.375        0.24074099999999998        0.3281541923076923        0        
C2        C        0.40625        0.296297        0.3281541923076923        0        
C3        C        0.375        0.314815        0.3281541923076923        0        
C4        C        0.40625        0.259259        0.3281541923076923        0        
C1        C        0.375        0.351852        0.3281541923076923        0        
C2        C        0.40625        0.407408        0.3281541923076923        0        
C3        C        0.375        0.42592500000000005        0.3281541923076923        0        
C4        C        0.40625        0.37037        0.3281541923076923        0        
C1        C        0.375        0.46296300000000007        0.3281541923076923        0        
C2        C        0.40625        0.518519        0.3281541923076923        0        
C3        C        0.375        0.537037        0.3281541923076923        0        
C4        C        0.40625        0.481481        0.3281541923076923        0        
C1        C        0.375        0.574075        0.3281541923076923        0        
C2        C        0.40625        0.62963        0.3281541923076923        0        
C3        C        0.375        0.648148        0.3281541923076923        0        
C4        C        0.40625        0.592592        0.3281541923076923        0        
C1        C        0.4375        0.018519        0.3281541923076923        0        
C2        C        0.46875        0.074075        0.3281541923076923        0        
C3        C        0.4375        0.092592        0.3281541923076923        0        
C4        C        0.46875        0.037037        0.3281541923076923        0        
C1        C        0.4375        0.12963        0.3281541923076923        0        
C2        C        0.46875        0.185185        0.3281541923076923        0        
C3        C        0.4375        0.203703        0.3281541923076923        0        
C4        C        0.46875        0.148148        0.3281541923076923        0        
C1        C        0.4375        0.24074099999999998        0.3281541923076923        0        
C2        C        0.46875        0.296297        0.3281541923076923        0        
C3        C        0.4375        0.314815        0.3281541923076923        0        
C4        C        0.46875        0.259259        0.3281541923076923        0        
C1        C        0.4375        0.351852        0.3281541923076923        0        
C2        C        0.46875        0.407408        0.3281541923076923        0        
C3        C        0.4375        0.42592500000000005        0.3281541923076923        0        
C4        C        0.46875        0.37037        0.3281541923076923        0        
C1        C        0.4375        0.46296300000000007        0.3281541923076923        0        
C2        C        0.46875        0.518519        0.3281541923076923        0        
C3        C        0.4375        0.537037        0.3281541923076923        0        
C4        C        0.46875        0.481481        0.3281541923076923        0        
C1        C        0.4375        0.574075        0.3281541923076923        0        
C2        C        0.46875        0.62963        0.3281541923076923        0        
C3        C        0.4375        0.648148        0.3281541923076923        0        
C4        C        0.46875        0.592592        0.3281541923076923        0        
C1        C        0.5        0.018519        0.3281541923076923        0        
C2        C        0.53125        0.074075        0.3281541923076923        0        
C3        C        0.5        0.092592        0.3281541923076923        0        
C4        C        0.53125        0.037037        0.3281541923076923        0        
C1        C        0.5        0.12963        0.3281541923076923        0        
C2        C        0.53125        0.185185        0.3281541923076923        0        
C3        C        0.5        0.203703        0.3281541923076923        0        
C4        C        0.53125        0.148148        0.3281541923076923        0        
C1        C        0.5        0.24074099999999998        0.3281541923076923        0        
C2        C        0.53125        0.296297        0.3281541923076923        0        
C3        C        0.5        0.314815        0.3281541923076923        0        
C4        C        0.53125        0.259259        0.3281541923076923        0        
C1        C        0.5        0.351852        0.3281541923076923        0        
C2        C        0.53125        0.407408        0.3281541923076923        0        
C3        C        0.5        0.42592500000000005        0.3281541923076923        0        
C4        C        0.53125        0.37037        0.3281541923076923        0        
C1        C        0.5        0.46296300000000007        0.3281541923076923        0        
C2        C        0.53125        0.518519        0.3281541923076923        0        
C3        C        0.5        0.537037        0.3281541923076923        0        
C4        C        0.53125        0.481481        0.3281541923076923        0        
C1        C        0.5        0.574075        0.3281541923076923        0        
C2        C        0.53125        0.62963        0.3281541923076923        0        
C3        C        0.5        0.648148        0.3281541923076923        0        
C4        C        0.53125        0.592592        0.3281541923076923        0        
C1        C        0.5625        0.018519        0.3281541923076923        0        
C2        C        0.59375        0.074075        0.3281541923076923        0        
C3        C        0.5625        0.092592        0.3281541923076923        0        
C4        C        0.59375        0.037037        0.3281541923076923        0        
C1        C        0.5625        0.12963        0.3281541923076923        0        
C2        C        0.59375        0.185185        0.3281541923076923        0        
C3        C        0.5625        0.203703        0.3281541923076923        0        
C4        C        0.59375        0.148148        0.3281541923076923        0        
C1        C        0.5625        0.24074099999999998        0.3281541923076923        0        
C2        C        0.59375        0.296297        0.3281541923076923        0        
C3        C        0.5625        0.314815        0.3281541923076923        0        
C4        C        0.59375        0.259259        0.3281541923076923        0        
C1        C        0.5625        0.351852        0.3281541923076923        0        
C2        C        0.59375        0.407408        0.3281541923076923        0        
C3        C        0.5625        0.42592500000000005        0.3281541923076923        0        
C4        C        0.59375        0.37037        0.3281541923076923        0        
C1        C        0.5625        0.46296300000000007        0.3281541923076923        0        
C2        C        0.59375        0.518519        0.3281541923076923        0        
C3        C        0.5625        0.537037        0.3281541923076923        0        
C4        C        0.59375        0.481481        0.3281541923076923        0        
C1        C        0.5625        0.574075        0.3281541923076923        0        
C2        C        0.59375        0.62963        0.3281541923076923        0        
C3        C        0.5625        0.648148        0.3281541923076923        0        
C4        C        0.59375        0.592592        0.3281541923076923        0        
C1        C        0.625        0.018519        0.3281541923076923        0        
C2        C        0.65625        0.074075        0.3281541923076923        0        
C3        C        0.625        0.092592        0.3281541923076923        0        
C4        C        0.65625        0.037037        0.3281541923076923        0        
C1        C        0.625        0.12963        0.3281541923076923        0        
C2        C        0.65625        0.185185        0.3281541923076923        0        
C3        C        0.625        0.203703        0.3281541923076923        0        
C4        C        0.65625        0.148148        0.3281541923076923        0        
C1        C        0.625        0.24074099999999998        0.3281541923076923        0        
C2        C        0.65625        0.296297        0.3281541923076923        0        
C3        C        0.625        0.314815        0.3281541923076923        0        
C4        C        0.65625        0.259259        0.3281541923076923        0        
C1        C        0.625        0.351852        0.3281541923076923        0        
C2        C        0.65625        0.407408        0.3281541923076923        0        
C3        C        0.625        0.42592500000000005        0.3281541923076923        0        
C4        C        0.65625        0.37037        0.3281541923076923        0        
C1        C        0.625        0.46296300000000007        0.3281541923076923        0        
C2        C        0.65625        0.518519        0.3281541923076923        0        
C3        C        0.625        0.537037        0.3281541923076923        0        
C4        C        0.65625        0.481481        0.3281541923076923        0        
C1        C        0.625        0.574075        0.3281541923076923        0        
C2        C        0.65625        0.62963        0.3281541923076923        0        
C3        C        0.625        0.648148        0.3281541923076923        0        
C4        C        0.65625        0.592592        0.3281541923076923        0        
C1        C        0.6875        0.018519        0.3281541923076923        0        
C2        C        0.71875        0.074075        0.3281541923076923        0        
C3        C        0.6875        0.092592        0.3281541923076923        0        
C4        C        0.71875        0.037037        0.3281541923076923        0        
C1        C        0.6875        0.12963        0.3281541923076923        0        
C2        C        0.71875        0.185185        0.3281541923076923        0        
C3        C        0.6875        0.203703        0.3281541923076923        0        
C4        C        0.71875        0.148148        0.3281541923076923        0        
C1        C        0.6875        0.24074099999999998        0.3281541923076923        0        
C2        C        0.71875        0.296297        0.3281541923076923        0        
C3        C        0.6875        0.314815        0.3281541923076923        0        
C4        C        0.71875        0.259259        0.3281541923076923        0        
C1        C        0.6875        0.351852        0.3281541923076923        0        
C2        C        0.71875        0.407408        0.3281541923076923        0        
C3        C        0.6875        0.42592500000000005        0.3281541923076923        0        
C4        C        0.71875        0.37037        0.3281541923076923        0        
C1        C        0.6875        0.46296300000000007        0.3281541923076923        0        
C2        C        0.71875        0.518519        0.3281541923076923        0        
C3        C        0.6875        0.537037        0.3281541923076923        0        
C4        C        0.71875        0.481481        0.3281541923076923        0        
C1        C        0.6875        0.574075        0.3281541923076923        0        
C2        C        0.71875        0.62963        0.3281541923076923        0        
C3        C        0.6875        0.648148        0.3281541923076923        0        
C4        C        0.71875        0.592592        0.3281541923076923        0        
C1        C        0.75        0.018519        0.3281541923076923        0        
C2        C        0.78125        0.074075        0.3281541923076923        0        
C3        C        0.75        0.092592        0.3281541923076923        0        
C4        C        0.78125        0.037037        0.3281541923076923        0        
C1        C        0.75        0.12963        0.3281541923076923        0        
C2        C        0.78125        0.185185        0.3281541923076923        0        
C3        C        0.75        0.203703        0.3281541923076923        0        
C4        C        0.78125        0.148148        0.3281541923076923        0        
C1        C        0.75        0.24074099999999998        0.3281541923076923        0        
C2        C        0.78125        0.296297        0.3281541923076923        0        
C3        C        0.75        0.314815        0.3281541923076923        0        
C4        C        0.78125        0.259259        0.3281541923076923        0        
C1        C        0.75        0.351852        0.3281541923076923        0        
C2        C        0.78125        0.407408        0.3281541923076923        0        
C3        C        0.75        0.42592500000000005        0.3281541923076923        0        
C4        C        0.78125        0.37037        0.3281541923076923        0        
C1        C        0.75        0.46296300000000007        0.3281541923076923        0        
C2        C        0.78125        0.518519        0.3281541923076923        0        
C3        C        0.75        0.537037        0.3281541923076923        0        
C4        C        0.78125        0.481481        0.3281541923076923        0        
C1        C        0.75        0.574075        0.3281541923076923        0        
C2        C        0.78125        0.62963        0.3281541923076923        0        
C3        C        0.75        0.648148        0.3281541923076923        0        
C4        C        0.78125        0.592592        0.3281541923076923        0        
C1        C        0.8125        0.018519        0.3281541923076923        0        
C2        C        0.84375        0.074075        0.3281541923076923        0        
C3        C        0.8125        0.092592        0.3281541923076923        0        
C4        C        0.84375        0.037037        0.3281541923076923        0        
C1        C        0.8125        0.12963        0.3281541923076923        0        
C2        C        0.84375        0.185185        0.3281541923076923        0        
C3        C        0.8125        0.203703        0.3281541923076923        0        
C4        C        0.84375        0.148148        0.3281541923076923        0        
C1        C        0.8125        0.24074099999999998        0.3281541923076923        0        
C2        C        0.84375        0.296297        0.3281541923076923        0        
C3        C        0.8125        0.314815        0.3281541923076923        0        
C4        C        0.84375        0.259259        0.3281541923076923        0        
C1        C        0.8125        0.351852        0.3281541923076923        0        
C2        C        0.84375        0.407408        0.3281541923076923        0        
C3        C        0.8125        0.42592500000000005        0.3281541923076923        0        
C4        C        0.84375        0.37037        0.3281541923076923        0        
C1        C        0.8125        0.46296300000000007        0.3281541923076923        0        
C2        C        0.84375        0.518519        0.3281541923076923        0        
C3        C        0.8125        0.537037        0.3281541923076923        0        
C4        C        0.84375        0.481481        0.3281541923076923        0        
C1        C        0.8125        0.574075        0.3281541923076923        0        
C2        C        0.84375        0.62963        0.3281541923076923        0        
C3        C        0.8125        0.648148        0.3281541923076923        0        
C4        C        0.84375        0.592592        0.3281541923076923        0        
C1        C        0.875        0.018519        0.3281541923076923        0        
C2        C        0.9062500000000001        0.074075        0.3281541923076923        0        
C3        C        0.875        0.092592        0.3281541923076923        0        
C4        C        0.9062500000000001        0.037037        0.3281541923076923        0        
C1        C        0.875        0.12963        0.3281541923076923        0        
C2        C        0.9062500000000001        0.185185        0.3281541923076923        0        
C3        C        0.875        0.203703        0.3281541923076923        0        
C4        C        0.9062500000000001        0.148148        0.3281541923076923        0        
C1        C        0.875        0.24074099999999998        0.3281541923076923        0        
C2        C        0.9062500000000001        0.296297        0.3281541923076923        0        
C3        C        0.875        0.314815        0.3281541923076923        0        
C4        C        0.9062500000000001        0.259259        0.3281541923076923        0        
C1        C        0.875        0.351852        0.3281541923076923        0        
C2        C        0.9062500000000001        0.407408        0.3281541923076923        0        
C3        C        0.875        0.42592500000000005        0.3281541923076923        0        
C4        C        0.9062500000000001        0.37037        0.3281541923076923        0        
C1        C        0.875        0.46296300000000007        0.3281541923076923        0        
C2        C        0.9062500000000001        0.518519        0.3281541923076923        0        
C3        C        0.875        0.537037        0.3281541923076923        0        
C4        C        0.9062500000000001        0.481481        0.3281541923076923        0        
C1        C        0.875        0.574075        0.3281541923076923        0        
C2        C        0.9062500000000001        0.62963        0.3281541923076923        0        
C3        C        0.875        0.648148        0.3281541923076923        0        
C4        C        0.9062500000000001        0.592592        0.3281541923076923        0        
C1        C        0.9375        0.018519        0.3281541923076923        0        
C2        C        0.9687500000000001        0.074075        0.3281541923076923        0        
C3        C        0.9375        0.092592        0.3281541923076923        0        
C4        C        0.9687500000000001        0.037037        0.3281541923076923        0        
C1        C        0.9375        0.12963        0.3281541923076923        0        
C2        C        0.9687500000000001        0.185185        0.3281541923076923        0        
C3        C        0.9375        0.203703        0.3281541923076923        0        
C4        C        0.9687500000000001        0.148148        0.3281541923076923        0        
C1        C        0.9375        0.24074099999999998        0.3281541923076923        0        
C2        C        0.9687500000000001        0.296297        0.3281541923076923        0        
C3        C        0.9375        0.314815        0.3281541923076923        0        
C4        C        0.9687500000000001        0.259259        0.3281541923076923        0        
C1        C        0.9375        0.351852        0.3281541923076923        0        
C2        C        0.9687500000000001        0.407408        0.3281541923076923        0        
C3        C        0.9375        0.42592500000000005        0.3281541923076923        0        
C4        C        0.9687500000000001        0.37037        0.3281541923076923        0        
C1        C        0.9375        0.46296300000000007        0.3281541923076923        0        
C2        C        0.9687500000000001        0.518519        0.3281541923076923        0        
C3        C        0.9375        0.537037        0.3281541923076923        0        
C4        C        0.9687500000000001        0.481481        0.3281541923076923        0        
C1        C        0.9375        0.574075        0.3281541923076923        0        
C2        C        0.9687500000000001        0.62963        0.3281541923076923        0        
C3        C        0.9375        0.648148        0.3281541923076923        0        
C4        C        0.9687500000000001        0.592592        0.3281541923076923        0        
C1        C        0.0        0.685186        0.3281541923076923        0        
C1        C        0.0625        0.685186        0.3281541923076923        0        
C1        C        0.125        0.685186        0.3281541923076923        0        
C1        C        0.1875        0.685186        0.3281541923076923        0        
C1        C        0.25        0.685186        0.3281541923076923        0        
C1        C        0.3125        0.685186        0.3281541923076923        0        
C1        C        0.375        0.685186        0.3281541923076923        0        
C1        C        0.4375        0.685186        0.3281541923076923        0        
C1        C        0.5        0.685186        0.3281541923076923        0        
C1        C        0.5625        0.685186        0.3281541923076923        0        
C1        C        0.625        0.685186        0.3281541923076923        0        
C1        C        0.6875        0.685186        0.3281541923076923        0        
C1        C        0.75        0.685186        0.3281541923076923        0        
C1        C        0.8125        0.685186        0.3281541923076923        0        
C1        C        0.875        0.685186        0.3281541923076923        0        
C1        C        0.9375        0.685186        0.3281541923076923        0        
C2        C        0.03125        0.740741        0.3281541923076923        0        
C2        C        0.09375        0.740741        0.3281541923076923        0        
C2        C        0.15625        0.740741        0.3281541923076923        0        
C2        C        0.21875        0.740741        0.3281541923076923        0        
C2        C        0.28125        0.740741        0.3281541923076923        0        
C2        C        0.34375        0.740741        0.3281541923076923        0        
C2        C        0.40625        0.740741        0.3281541923076923        0        
C2        C        0.46875        0.740741        0.3281541923076923        0        
C2        C        0.53125        0.740741        0.3281541923076923        0        
C2        C        0.59375        0.740741        0.3281541923076923        0        
C2        C        0.65625        0.740741        0.3281541923076923        0        
C2        C        0.71875        0.740741        0.3281541923076923        0        
C2        C        0.78125        0.740741        0.3281541923076923        0        
C2        C        0.84375        0.740741        0.3281541923076923        0        
C2        C        0.9062500000000001        0.740741        0.3281541923076923        0        
C2        C        0.9687500000000001        0.740741        0.3281541923076923        0        
C3        C        0.0        0.759259        0.3281541923076923        0        
C3        C        0.0625        0.759259        0.3281541923076923        0        
C3        C        0.125        0.759259        0.3281541923076923        0        
C3        C        0.1875        0.759259        0.3281541923076923        0        
C3        C        0.25        0.759259        0.3281541923076923        0        
C3        C        0.3125        0.759259        0.3281541923076923        0        
C3        C        0.375        0.759259        0.3281541923076923        0        
C3        C        0.4375        0.759259        0.3281541923076923        0        
C3        C        0.5        0.759259        0.3281541923076923        0        
C3        C        0.5625        0.759259        0.3281541923076923        0        
C3        C        0.625        0.759259        0.3281541923076923        0        
C3        C        0.6875        0.759259        0.3281541923076923        0        
C3        C        0.75        0.759259        0.3281541923076923        0        
C3        C        0.8125        0.759259        0.3281541923076923        0        
C3        C        0.875        0.759259        0.3281541923076923        0        
C3        C        0.9375        0.759259        0.3281541923076923        0        
C4        C        0.03125        0.703703        0.3281541923076923        0        
C4        C        0.09375        0.703703        0.3281541923076923        0        
C4        C        0.15625        0.703703        0.3281541923076923        0        
C4        C        0.21875        0.703703        0.3281541923076923        0        
C4        C        0.28125        0.703703        0.3281541923076923        0        
C4        C        0.34375        0.703703        0.3281541923076923        0        
C4        C        0.40625        0.703703        0.3281541923076923        0        
C4        C        0.46875        0.703703        0.3281541923076923        0        
C4        C        0.53125        0.703703        0.3281541923076923        0        
C4        C        0.59375        0.703703        0.3281541923076923        0        
C4        C        0.65625        0.703703        0.3281541923076923        0        
C4        C        0.71875        0.703703        0.3281541923076923        0        
C4        C        0.78125        0.703703        0.3281541923076923        0        
C4        C        0.84375        0.703703        0.3281541923076923        0        
C4        C        0.9062500000000001        0.703703        0.3281541923076923        0        
C4        C        0.9687500000000001        0.703703        0.3281541923076923        0        
C1        C        0.0        0.796297        0.3281541923076923        0        
C1        C        0.0625        0.796297        0.3281541923076923        0        
C1        C        0.125        0.796297        0.3281541923076923        0        
C1        C        0.1875        0.796297        0.3281541923076923        0        
C1        C        0.25        0.796297        0.3281541923076923        0        
C1        C        0.3125        0.796297        0.3281541923076923        0        
C1        C        0.375        0.796297        0.3281541923076923        0        
C1        C        0.4375        0.796297        0.3281541923076923        0        
C1        C        0.5        0.796297        0.3281541923076923        0        
C1        C        0.5625        0.796297        0.3281541923076923        0        
C1        C        0.625        0.796297        0.3281541923076923        0        
C1        C        0.6875        0.796297        0.3281541923076923        0        
C1        C        0.75        0.796297        0.3281541923076923        0        
C1        C        0.8125        0.796297        0.3281541923076923        0        
C1        C        0.875        0.796297        0.3281541923076923        0        
C1        C        0.9375        0.796297        0.3281541923076923        0        
C2        C        0.03125        0.851852        0.3281541923076923        0        
C2        C        0.09375        0.851852        0.3281541923076923        0        
C2        C        0.15625        0.851852        0.3281541923076923        0        
C2        C        0.21875        0.851852        0.3281541923076923        0        
C2        C        0.28125        0.851852        0.3281541923076923        0        
C2        C        0.34375        0.851852        0.3281541923076923        0        
C2        C        0.40625        0.851852        0.3281541923076923        0        
C2        C        0.46875        0.851852        0.3281541923076923        0        
C2        C        0.53125        0.851852        0.3281541923076923        0        
C2        C        0.59375        0.851852        0.3281541923076923        0        
C2        C        0.65625        0.851852        0.3281541923076923        0        
C2        C        0.71875        0.851852        0.3281541923076923        0        
C2        C        0.78125        0.851852        0.3281541923076923        0        
C2        C        0.84375        0.851852        0.3281541923076923        0        
C2        C        0.9062500000000001        0.851852        0.3281541923076923        0        
C2        C        0.9687500000000001        0.851852        0.3281541923076923        0        
C3        C        0.0        0.87037        0.3281541923076923        0        
C3        C        0.0625        0.87037        0.3281541923076923        0        
C3        C        0.125        0.87037        0.3281541923076923        0        
C3        C        0.1875        0.87037        0.3281541923076923        0        
C3        C        0.25        0.87037        0.3281541923076923        0        
C3        C        0.3125        0.87037        0.3281541923076923        0        
C3        C        0.375        0.87037        0.3281541923076923        0        
C3        C        0.4375        0.87037        0.3281541923076923        0        
C3        C        0.5        0.87037        0.3281541923076923        0        
C3        C        0.5625        0.87037        0.3281541923076923        0        
C3        C        0.625        0.87037        0.3281541923076923        0        
C3        C        0.6875        0.87037        0.3281541923076923        0        
C3        C        0.75        0.87037        0.3281541923076923        0        
C3        C        0.8125        0.87037        0.3281541923076923        0        
C3        C        0.875        0.87037        0.3281541923076923        0        
C3        C        0.9375        0.87037        0.3281541923076923        0        
C4        C        0.03125        0.814814        0.3281541923076923        0        
C4        C        0.09375        0.814814        0.3281541923076923        0        
C4        C        0.15625        0.814814        0.3281541923076923        0        
C4        C        0.21875        0.814814        0.3281541923076923        0        
C4        C        0.28125        0.814814        0.3281541923076923        0        
C4        C        0.34375        0.814814        0.3281541923076923        0        
C4        C        0.40625        0.814814        0.3281541923076923        0        
C4        C        0.46875        0.814814        0.3281541923076923        0        
C4        C        0.53125        0.814814        0.3281541923076923        0        
C4        C        0.59375        0.814814        0.3281541923076923        0        
C4        C        0.65625        0.814814        0.3281541923076923        0        
C4        C        0.71875        0.814814        0.3281541923076923        0        
C4        C        0.78125        0.814814        0.3281541923076923        0        
C4        C        0.84375        0.814814        0.3281541923076923        0        
C4        C        0.9062500000000001        0.814814        0.3281541923076923        0        
C4        C        0.9687500000000001        0.814814        0.3281541923076923        0        
C1        C        0.0        0.907408        0.3281541923076923        0        
C1        C        0.0625        0.907408        0.3281541923076923        0        
C1        C        0.125        0.907408        0.3281541923076923        0        
C1        C        0.1875        0.907408        0.3281541923076923        0        
C1        C        0.25        0.907408        0.3281541923076923        0        
C1        C        0.3125        0.907408        0.3281541923076923        0        
C1        C        0.375        0.907408        0.3281541923076923        0        
C1        C        0.4375        0.907408        0.3281541923076923        0        
C1        C        0.5        0.907408        0.3281541923076923        0        
C1        C        0.5625        0.907408        0.3281541923076923        0        
C1        C        0.625        0.907408        0.3281541923076923        0        
C1        C        0.6875        0.907408        0.3281541923076923        0        
C1        C        0.75        0.907408        0.3281541923076923        0        
C1        C        0.8125        0.907408        0.3281541923076923        0        
C1        C        0.875        0.907408        0.3281541923076923        0        
C1        C        0.9375        0.907408        0.3281541923076923        0        
C2        C        0.03125        0.962963        0.3281541923076923        0        
C2        C        0.09375        0.962963        0.3281541923076923        0        
C2        C        0.15625        0.962963        0.3281541923076923        0        
C2        C        0.21875        0.962963        0.3281541923076923        0        
C2        C        0.28125        0.962963        0.3281541923076923        0        
C2        C        0.34375        0.962963        0.3281541923076923        0        
C2        C        0.40625        0.962963        0.3281541923076923        0        
C2        C        0.46875        0.962963        0.3281541923076923        0        
C2        C        0.53125        0.962963        0.3281541923076923        0        
C2        C        0.59375        0.962963        0.3281541923076923        0        
C2        C        0.65625        0.962963        0.3281541923076923        0        
C2        C        0.71875        0.962963        0.3281541923076923        0        
C2        C        0.78125        0.962963        0.3281541923076923        0        
C2        C        0.84375        0.962963        0.3281541923076923        0        
C2        C        0.9062500000000001        0.962963        0.3281541923076923        0        
C2        C        0.9687500000000001        0.962963        0.3281541923076923        0        
C3        C        0.0        0.9814809999999999        0.3281541923076923        0        
C3        C        0.0625        0.9814809999999999        0.3281541923076923        0        
C3        C        0.125        0.9814809999999999        0.3281541923076923        0        
C3        C        0.1875        0.9814809999999999        0.3281541923076923        0        
C3        C        0.25        0.9814809999999999        0.3281541923076923        0        
C3        C        0.3125        0.9814809999999999        0.3281541923076923        0        
C3        C        0.375        0.9814809999999999        0.3281541923076923        0        
C3        C        0.4375        0.9814809999999999        0.3281541923076923        0        
C3        C        0.5        0.9814809999999999        0.3281541923076923        0        
C3        C        0.5625        0.9814809999999999        0.3281541923076923        0        
C3        C        0.625        0.9814809999999999        0.3281541923076923        0        
C3        C        0.6875        0.9814809999999999        0.3281541923076923        0        
C3        C        0.75        0.9814809999999999        0.3281541923076923        0        
C3        C        0.8125        0.9814809999999999        0.3281541923076923        0        
C3        C        0.875        0.9814809999999999        0.3281541923076923        0        
C3        C        0.9375        0.9814809999999999        0.3281541923076923        0        
C4        C        0.03125        0.925925        0.3281541923076923        0        
C4        C        0.09375        0.925925        0.3281541923076923        0        
C4        C        0.15625        0.925925        0.3281541923076923        0        
C4        C        0.21875        0.925925        0.3281541923076923        0        
C4        C        0.28125        0.925925        0.3281541923076923        0        
C4        C        0.34375        0.925925        0.3281541923076923        0        
C4        C        0.40625        0.925925        0.3281541923076923        0        
C4        C        0.46875        0.925925        0.3281541923076923        0        
C4        C        0.53125        0.925925        0.3281541923076923        0        
C4        C        0.59375        0.925925        0.3281541923076923        0        
C4        C        0.65625        0.925925        0.3281541923076923        0        
C4        C        0.71875        0.925925        0.3281541923076923        0        
C4        C        0.78125        0.925925        0.3281541923076923        0        
C4        C        0.84375        0.925925        0.3281541923076923        0        
C4        C        0.9062500000000001        0.925925        0.3281541923076923        0        
C4        C        0.9687500000000001        0.925925        0.3281541923076923        0        
C_FG        C        0.0        0.018519        0.5428971923076924        0.2        
C2        C        0.03125        0.074075        0.5428971923076924        0        
C3        C        0.0        0.092592        0.5428971923076924        0        
C4        C        0.03125        0.037037        0.5428971923076924        0        
C1        C        0.0        0.12963        0.5428971923076924        0        
C2        C        0.03125        0.185185        0.5428971923076924        0        
C3        C        0.0        0.203703        0.5428971923076924        0        
C4        C        0.03125        0.148148        0.5428971923076924        0        
C_FG        C        0.0        0.24074099999999998        0.5428971923076924        0.2        
C2        C        0.03125        0.296297        0.5428971923076924        0        
C3        C        0.0        0.314815        0.5428971923076924        0        
C4        C        0.03125        0.259259        0.5428971923076924        0        
C1        C        0.0        0.351852        0.5428971923076924        0        
C2        C        0.03125        0.407408        0.5428971923076924        0        
C3        C        0.0        0.42592500000000005        0.5428971923076924        0        
C4        C        0.03125        0.37037        0.5428971923076924        0        
C_FG        C        0.0        0.46296300000000007        0.5428971923076924        0.2        
C2        C        0.03125        0.518519        0.5428971923076924        0        
C3        C        0.0        0.537037        0.5428971923076924        0        
C4        C        0.03125        0.481481        0.5428971923076924        0        
C1        C        0.0        0.574075        0.5428971923076924        0        
C2        C        0.03125        0.62963        0.5428971923076924        0        
C3        C        0.0        0.648148        0.5428971923076924        0        
C4        C        0.03125        0.592592        0.5428971923076924        0        
C1        C        0.0625        0.018519        0.5428971923076924        0        
C2        C        0.09375        0.074075        0.5428971923076924        0        
C3        C        0.0625        0.092592        0.5428971923076924        0        
C4        C        0.09375        0.037037        0.5428971923076924        0        
C1        C        0.0625        0.12963        0.5428971923076924        0        
C2        C        0.09375        0.185185        0.5428971923076924        0        
C3        C        0.0625        0.203703        0.5428971923076924        0        
C4        C        0.09375        0.148148        0.5428971923076924        0        
C1        C        0.0625        0.24074099999999998        0.5428971923076924        0        
C2        C        0.09375        0.296297        0.5428971923076924        0        
C3        C        0.0625        0.314815        0.5428971923076924        0        
C4        C        0.09375        0.259259        0.5428971923076924        0        
C1        C        0.0625        0.351852        0.5428971923076924        0        
C2        C        0.09375        0.407408        0.5428971923076924        0        
C3        C        0.0625        0.42592500000000005        0.5428971923076924        0        
C4        C        0.09375        0.37037        0.5428971923076924        0        
C1        C        0.0625        0.46296300000000007        0.5428971923076924        0        
C2        C        0.09375        0.518519        0.5428971923076924        0        
C3        C        0.0625        0.537037        0.5428971923076924        0        
C4        C        0.09375        0.481481        0.5428971923076924        0        
C1        C        0.0625        0.574075        0.5428971923076924        0        
C2        C        0.09375        0.62963        0.5428971923076924        0        
C3        C        0.0625        0.648148        0.5428971923076924        0        
C4        C        0.09375        0.592592        0.5428971923076924        0        
C1        C        0.125        0.018519        0.5428971923076924        0        
C2        C        0.15625        0.074075        0.5428971923076924        0        
C3        C        0.125        0.092592        0.5428971923076924        0        
C4        C        0.15625        0.037037        0.5428971923076924        0        
C1        C        0.125        0.12963        0.5428971923076924        0        
C2        C        0.15625        0.185185        0.5428971923076924        0        
C3        C        0.125        0.203703        0.5428971923076924        0        
C4        C        0.15625        0.148148        0.5428971923076924        0        
C1        C        0.125        0.24074099999999998        0.5428971923076924        0        
C2        C        0.15625        0.296297        0.5428971923076924        0        
C3        C        0.125        0.314815        0.5428971923076924        0        
C4        C        0.15625        0.259259        0.5428971923076924        0        
C1        C        0.125        0.351852        0.5428971923076924        0        
C2        C        0.15625        0.407408        0.5428971923076924        0        
C3        C        0.125        0.42592500000000005        0.5428971923076924        0        
C4        C        0.15625        0.37037        0.5428971923076924        0        
C1        C        0.125        0.46296300000000007        0.5428971923076924        0        
C2        C        0.15625        0.518519        0.5428971923076924        0        
C3        C        0.125        0.537037        0.5428971923076924        0        
C4        C        0.15625        0.481481        0.5428971923076924        0        
C1        C        0.125        0.574075        0.5428971923076924        0        
C2        C        0.15625        0.62963        0.5428971923076924        0        
C3        C        0.125        0.648148        0.5428971923076924        0        
C4        C        0.15625        0.592592        0.5428971923076924        0        
C_FG        C        0.1875        0.018519        0.5428971923076924        0.2        
C2        C        0.21875        0.074075        0.5428971923076924        0        
C3        C        0.1875        0.092592        0.5428971923076924        0        
C4        C        0.21875        0.037037        0.5428971923076924        0        
C1        C        0.1875        0.12963        0.5428971923076924        0        
C2        C        0.21875        0.185185        0.5428971923076924        0        
C3        C        0.1875        0.203703        0.5428971923076924        0        
C4        C        0.21875        0.148148        0.5428971923076924        0        
C_FG        C        0.1875        0.24074099999999998        0.5428971923076924        0.2        
C2        C        0.21875        0.296297        0.5428971923076924        0        
C3        C        0.1875        0.314815        0.5428971923076924        0        
C4        C        0.21875        0.259259        0.5428971923076924        0        
C1        C        0.1875        0.351852        0.5428971923076924        0        
C2        C        0.21875        0.407408        0.5428971923076924        0        
C3        C        0.1875        0.42592500000000005        0.5428971923076924        0        
C4        C        0.21875        0.37037        0.5428971923076924        0        
C_FG        C        0.1875        0.46296300000000007        0.5428971923076924        0.2        
C2        C        0.21875        0.518519        0.5428971923076924        0        
C3        C        0.1875        0.537037        0.5428971923076924        0        
C4        C        0.21875        0.481481        0.5428971923076924        0        
C1        C        0.1875        0.574075        0.5428971923076924        0        
C2        C        0.21875        0.62963        0.5428971923076924        0        
C3        C        0.1875        0.648148        0.5428971923076924        0        
C4        C        0.21875        0.592592        0.5428971923076924        0        
C1        C        0.25        0.018519        0.5428971923076924        0        
C2        C        0.28125        0.074075        0.5428971923076924        0        
C3        C        0.25        0.092592        0.5428971923076924        0        
C4        C        0.28125        0.037037        0.5428971923076924        0        
C1        C        0.25        0.12963        0.5428971923076924        0        
C2        C        0.28125        0.185185        0.5428971923076924        0        
C3        C        0.25        0.203703        0.5428971923076924        0        
C4        C        0.28125        0.148148        0.5428971923076924        0        
C1        C        0.25        0.24074099999999998        0.5428971923076924        0        
C2        C        0.28125        0.296297        0.5428971923076924        0        
C3        C        0.25        0.314815        0.5428971923076924        0        
C4        C        0.28125        0.259259        0.5428971923076924        0        
C1        C        0.25        0.351852        0.5428971923076924        0        
C2        C        0.28125        0.407408        0.5428971923076924        0        
C3        C        0.25        0.42592500000000005        0.5428971923076924        0        
C4        C        0.28125        0.37037        0.5428971923076924        0        
C1        C        0.25        0.46296300000000007        0.5428971923076924        0        
C2        C        0.28125        0.518519        0.5428971923076924        0        
C3        C        0.25        0.537037        0.5428971923076924        0        
C4        C        0.28125        0.481481        0.5428971923076924        0        
C1        C        0.25        0.574075        0.5428971923076924        0        
C2        C        0.28125        0.62963        0.5428971923076924        0        
C3        C        0.25        0.648148        0.5428971923076924        0        
C4        C        0.28125        0.592592        0.5428971923076924        0        
C1        C        0.3125        0.018519        0.5428971923076924        0        
C2        C        0.34375        0.074075        0.5428971923076924        0        
C3        C        0.3125        0.092592        0.5428971923076924        0        
C4        C        0.34375        0.037037        0.5428971923076924        0        
C1        C        0.3125        0.12963        0.5428971923076924        0        
C2        C        0.34375        0.185185        0.5428971923076924        0        
C3        C        0.3125        0.203703        0.5428971923076924        0        
C4        C        0.34375        0.148148        0.5428971923076924        0        
C1        C        0.3125        0.24074099999999998        0.5428971923076924        0        
C2        C        0.34375        0.296297        0.5428971923076924        0        
C3        C        0.3125        0.314815        0.5428971923076924        0        
C4        C        0.34375        0.259259        0.5428971923076924        0        
C1        C        0.3125        0.351852        0.5428971923076924        0        
C2        C        0.34375        0.407408        0.5428971923076924        0        
C3        C        0.3125        0.42592500000000005        0.5428971923076924        0        
C4        C        0.34375        0.37037        0.5428971923076924        0        
C1        C        0.3125        0.46296300000000007        0.5428971923076924        0        
C2        C        0.34375        0.518519        0.5428971923076924        0        
C3        C        0.3125        0.537037        0.5428971923076924        0        
C4        C        0.34375        0.481481        0.5428971923076924        0        
C1        C        0.3125        0.574075        0.5428971923076924        0        
C2        C        0.34375        0.62963        0.5428971923076924        0        
C3        C        0.3125        0.648148        0.5428971923076924        0        
C4        C        0.34375        0.592592        0.5428971923076924        0        
C_FG        C        0.375        0.018519        0.5428971923076924        0.2        
C2        C        0.40625        0.074075        0.5428971923076924        0        
C3        C        0.375        0.092592        0.5428971923076924        0        
C4        C        0.40625        0.037037        0.5428971923076924        0        
C1        C        0.375        0.12963        0.5428971923076924        0        
C2        C        0.40625        0.185185        0.5428971923076924        0        
C3        C        0.375        0.203703        0.5428971923076924        0        
C4        C        0.40625        0.148148        0.5428971923076924        0        
C_FG        C        0.375        0.24074099999999998        0.5428971923076924        0.2        
C2        C        0.40625        0.296297        0.5428971923076924        0        
C3        C        0.375        0.314815        0.5428971923076924        0        
C4        C        0.40625        0.259259        0.5428971923076924        0        
C1        C        0.375        0.351852        0.5428971923076924        0        
C2        C        0.40625        0.407408        0.5428971923076924        0        
C3        C        0.375        0.42592500000000005        0.5428971923076924        0        
C4        C        0.40625        0.37037        0.5428971923076924        0        
C_FG        C        0.375        0.46296300000000007        0.5428971923076924        0.2        
C2        C        0.40625        0.518519        0.5428971923076924        0        
C3        C        0.375        0.537037        0.5428971923076924        0        
C4        C        0.40625        0.481481        0.5428971923076924        0        
C1        C        0.375        0.574075        0.5428971923076924        0        
C2        C        0.40625        0.62963        0.5428971923076924        0        
C3        C        0.375        0.648148        0.5428971923076924        0        
C4        C        0.40625        0.592592        0.5428971923076924        0        
C1        C        0.4375        0.018519        0.5428971923076924        0        
C2        C        0.46875        0.074075        0.5428971923076924        0        
C3        C        0.4375        0.092592        0.5428971923076924        0        
C4        C        0.46875        0.037037        0.5428971923076924        0        
C1        C        0.4375        0.12963        0.5428971923076924        0        
C2        C        0.46875        0.185185        0.5428971923076924        0        
C3        C        0.4375        0.203703        0.5428971923076924        0        
C4        C        0.46875        0.148148        0.5428971923076924        0        
C1        C        0.4375        0.24074099999999998        0.5428971923076924        0        
C2        C        0.46875        0.296297        0.5428971923076924        0        
C3        C        0.4375        0.314815        0.5428971923076924        0        
C4        C        0.46875        0.259259        0.5428971923076924        0        
C1        C        0.4375        0.351852        0.5428971923076924        0        
C2        C        0.46875        0.407408        0.5428971923076924        0        
C3        C        0.4375        0.42592500000000005        0.5428971923076924        0        
C4        C        0.46875        0.37037        0.5428971923076924        0        
C1        C        0.4375        0.46296300000000007        0.5428971923076924        0        
C2        C        0.46875        0.518519        0.5428971923076924        0        
C3        C        0.4375        0.537037        0.5428971923076924        0        
C4        C        0.46875        0.481481        0.5428971923076924        0        
C1        C        0.4375        0.574075        0.5428971923076924        0        
C2        C        0.46875        0.62963        0.5428971923076924        0        
C3        C        0.4375        0.648148        0.5428971923076924        0        
C4        C        0.46875        0.592592        0.5428971923076924        0        
C1        C        0.5        0.018519        0.5428971923076924        0        
C2        C        0.53125        0.074075        0.5428971923076924        0        
C3        C        0.5        0.092592        0.5428971923076924        0        
C4        C        0.53125        0.037037        0.5428971923076924        0        
C1        C        0.5        0.12963        0.5428971923076924        0        
C2        C        0.53125        0.185185        0.5428971923076924        0        
C3        C        0.5        0.203703        0.5428971923076924        0        
C4        C        0.53125        0.148148        0.5428971923076924        0        
C1        C        0.5        0.24074099999999998        0.5428971923076924        0        
C2        C        0.53125        0.296297        0.5428971923076924        0        
C3        C        0.5        0.314815        0.5428971923076924        0        
C4        C        0.53125        0.259259        0.5428971923076924        0        
C1        C        0.5        0.351852        0.5428971923076924        0        
C2        C        0.53125        0.407408        0.5428971923076924        0        
C3        C        0.5        0.42592500000000005        0.5428971923076924        0        
C4        C        0.53125        0.37037        0.5428971923076924        0        
C1        C        0.5        0.46296300000000007        0.5428971923076924        0        
C2        C        0.53125        0.518519        0.5428971923076924        0        
C3        C        0.5        0.537037        0.5428971923076924        0        
C4        C        0.53125        0.481481        0.5428971923076924        0        
C1        C        0.5        0.574075        0.5428971923076924        0        
C2        C        0.53125        0.62963        0.5428971923076924        0        
C3        C        0.5        0.648148        0.5428971923076924        0        
C4        C        0.53125        0.592592        0.5428971923076924        0        
C_FG        C        0.5625        0.018519        0.5428971923076924        0.2        
C2        C        0.59375        0.074075        0.5428971923076924        0        
C3        C        0.5625        0.092592        0.5428971923076924        0        
C4        C        0.59375        0.037037        0.5428971923076924        0        
C1        C        0.5625        0.12963        0.5428971923076924        0        
C2        C        0.59375        0.185185        0.5428971923076924        0        
C3        C        0.5625        0.203703        0.5428971923076924        0        
C4        C        0.59375        0.148148        0.5428971923076924        0        
C_FG        C        0.5625        0.24074099999999998        0.5428971923076924        0.2        
C2        C        0.59375        0.296297        0.5428971923076924        0        
C3        C        0.5625        0.314815        0.5428971923076924        0        
C4        C        0.59375        0.259259        0.5428971923076924        0        
C1        C        0.5625        0.351852        0.5428971923076924        0        
C2        C        0.59375        0.407408        0.5428971923076924        0        
C3        C        0.5625        0.42592500000000005        0.5428971923076924        0        
C4        C        0.59375        0.37037        0.5428971923076924        0        
C_FG        C        0.5625        0.46296300000000007        0.5428971923076924        0.2        
C2        C        0.59375        0.518519        0.5428971923076924        0        
C3        C        0.5625        0.537037        0.5428971923076924        0        
C4        C        0.59375        0.481481        0.5428971923076924        0        
C1        C        0.5625        0.574075        0.5428971923076924        0        
C2        C        0.59375        0.62963        0.5428971923076924        0        
C3        C        0.5625        0.648148        0.5428971923076924        0        
C4        C        0.59375        0.592592        0.5428971923076924        0        
C1        C        0.625        0.018519        0.5428971923076924        0        
C2        C        0.65625        0.074075        0.5428971923076924        0        
C3        C        0.625        0.092592        0.5428971923076924        0        
C4        C        0.65625        0.037037        0.5428971923076924        0        
C1        C        0.625        0.12963        0.5428971923076924        0        
C2        C        0.65625        0.185185        0.5428971923076924        0        
C3        C        0.625        0.203703        0.5428971923076924        0        
C4        C        0.65625        0.148148        0.5428971923076924        0        
C1        C        0.625        0.24074099999999998        0.5428971923076924        0        
C2        C        0.65625        0.296297        0.5428971923076924        0        
C3        C        0.625        0.314815        0.5428971923076924        0        
C4        C        0.65625        0.259259        0.5428971923076924        0        
C1        C        0.625        0.351852        0.5428971923076924        0        
C2        C        0.65625        0.407408        0.5428971923076924        0        
C3        C        0.625        0.42592500000000005        0.5428971923076924        0        
C4        C        0.65625        0.37037        0.5428971923076924        0        
C1        C        0.625        0.46296300000000007        0.5428971923076924        0        
C2        C        0.65625        0.518519        0.5428971923076924        0        
C3        C        0.625        0.537037        0.5428971923076924        0        
C4        C        0.65625        0.481481        0.5428971923076924        0        
C1        C        0.625        0.574075        0.5428971923076924        0        
C2        C        0.65625        0.62963        0.5428971923076924        0        
C3        C        0.625        0.648148        0.5428971923076924        0        
C4        C        0.65625        0.592592        0.5428971923076924        0        
C1        C        0.6875        0.018519        0.5428971923076924        0        
C2        C        0.71875        0.074075        0.5428971923076924        0        
C3        C        0.6875        0.092592        0.5428971923076924        0        
C4        C        0.71875        0.037037        0.5428971923076924        0        
C1        C        0.6875        0.12963        0.5428971923076924        0        
C2        C        0.71875        0.185185        0.5428971923076924        0        
C3        C        0.6875        0.203703        0.5428971923076924        0        
C4        C        0.71875        0.148148        0.5428971923076924        0        
C1        C        0.6875        0.24074099999999998        0.5428971923076924        0        
C2        C        0.71875        0.296297        0.5428971923076924        0        
C3        C        0.6875        0.314815        0.5428971923076924        0        
C4        C        0.71875        0.259259        0.5428971923076924        0        
C1        C        0.6875        0.351852        0.5428971923076924        0        
C2        C        0.71875        0.407408        0.5428971923076924        0        
C3        C        0.6875        0.42592500000000005        0.5428971923076924        0        
C4        C        0.71875        0.37037        0.5428971923076924        0        
C1        C        0.6875        0.46296300000000007        0.5428971923076924        0        
C2        C        0.71875        0.518519        0.5428971923076924        0        
C3        C        0.6875        0.537037        0.5428971923076924        0        
C4        C        0.71875        0.481481        0.5428971923076924        0        
C1        C        0.6875        0.574075        0.5428971923076924        0        
C2        C        0.71875        0.62963        0.5428971923076924        0        
C3        C        0.6875        0.648148        0.5428971923076924        0        
C4        C        0.71875        0.592592        0.5428971923076924        0        
C_FG        C        0.75        0.018519        0.5428971923076924        0.2        
C2        C        0.78125        0.074075        0.5428971923076924        0        
C3        C        0.75        0.092592        0.5428971923076924        0        
C4        C        0.78125        0.037037        0.5428971923076924        0        
C1        C        0.75        0.12963        0.5428971923076924        0        
C2        C        0.78125        0.185185        0.5428971923076924        0        
C3        C        0.75        0.203703        0.5428971923076924        0        
C4        C        0.78125        0.148148        0.5428971923076924        0        
C_FG        C        0.75        0.24074099999999998        0.5428971923076924        0.2        
C2        C        0.78125        0.296297        0.5428971923076924        0        
C3        C        0.75        0.314815        0.5428971923076924        0        
C4        C        0.78125        0.259259        0.5428971923076924        0        
C1        C        0.75        0.351852        0.5428971923076924        0        
C2        C        0.78125        0.407408        0.5428971923076924        0        
C3        C        0.75        0.42592500000000005        0.5428971923076924        0        
C4        C        0.78125        0.37037        0.5428971923076924        0        
C_FG        C        0.75        0.46296300000000007        0.5428971923076924        0.2        
C2        C        0.78125        0.518519        0.5428971923076924        0        
C3        C        0.75        0.537037        0.5428971923076924        0        
C4        C        0.78125        0.481481        0.5428971923076924        0        
C1        C        0.75        0.574075        0.5428971923076924        0        
C2        C        0.78125        0.62963        0.5428971923076924        0        
C3        C        0.75        0.648148        0.5428971923076924        0        
C4        C        0.78125        0.592592        0.5428971923076924        0        
C1        C        0.8125        0.018519        0.5428971923076924        0        
C2        C        0.84375        0.074075        0.5428971923076924        0        
C3        C        0.8125        0.092592        0.5428971923076924        0        
C4        C        0.84375        0.037037        0.5428971923076924        0        
C1        C        0.8125        0.12963        0.5428971923076924        0        
C2        C        0.84375        0.185185        0.5428971923076924        0        
C3        C        0.8125        0.203703        0.5428971923076924        0        
C4        C        0.84375        0.148148        0.5428971923076924        0        
C1        C        0.8125        0.24074099999999998        0.5428971923076924        0        
C2        C        0.84375        0.296297        0.5428971923076924        0        
C3        C        0.8125        0.314815        0.5428971923076924        0        
C4        C        0.84375        0.259259        0.5428971923076924        0        
C1        C        0.8125        0.351852        0.5428971923076924        0        
C2        C        0.84375        0.407408        0.5428971923076924        0        
C3        C        0.8125        0.42592500000000005        0.5428971923076924        0        
C4        C        0.84375        0.37037        0.5428971923076924        0        
C1        C        0.8125        0.46296300000000007        0.5428971923076924        0        
C2        C        0.84375        0.518519        0.5428971923076924        0        
C3        C        0.8125        0.537037        0.5428971923076924        0        
C4        C        0.84375        0.481481        0.5428971923076924        0        
C1        C        0.8125        0.574075        0.5428971923076924        0        
C2        C        0.84375        0.62963        0.5428971923076924        0        
C3        C        0.8125        0.648148        0.5428971923076924        0        
C4        C        0.84375        0.592592        0.5428971923076924        0        
C1        C        0.875        0.018519        0.5428971923076924        0        
C2        C        0.9062500000000001        0.074075        0.5428971923076924        0        
C3        C        0.875        0.092592        0.5428971923076924        0        
C4        C        0.9062500000000001        0.037037        0.5428971923076924        0        
C1        C        0.875        0.12963        0.5428971923076924        0        
C2        C        0.9062500000000001        0.185185        0.5428971923076924        0        
C3        C        0.875        0.203703        0.5428971923076924        0        
C4        C        0.9062500000000001        0.148148        0.5428971923076924        0        
C1        C        0.875        0.24074099999999998        0.5428971923076924        0        
C2        C        0.9062500000000001        0.296297        0.5428971923076924        0        
C3        C        0.875        0.314815        0.5428971923076924        0        
C4        C        0.9062500000000001        0.259259        0.5428971923076924        0        
C1        C        0.875        0.351852        0.5428971923076924        0        
C2        C        0.9062500000000001        0.407408        0.5428971923076924        0        
C3        C        0.875        0.42592500000000005        0.5428971923076924        0        
C4        C        0.9062500000000001        0.37037        0.5428971923076924        0        
C1        C        0.875        0.46296300000000007        0.5428971923076924        0        
C2        C        0.9062500000000001        0.518519        0.5428971923076924        0        
C3        C        0.875        0.537037        0.5428971923076924        0        
C4        C        0.9062500000000001        0.481481        0.5428971923076924        0        
C1        C        0.875        0.574075        0.5428971923076924        0        
C2        C        0.9062500000000001        0.62963        0.5428971923076924        0        
C3        C        0.875        0.648148        0.5428971923076924        0        
C4        C        0.9062500000000001        0.592592        0.5428971923076924        0        
C_FG        C        0.9375        0.018519        0.5428971923076924        0.2        
C2        C        0.9687500000000001        0.074075        0.5428971923076924        0        
C3        C        0.9375        0.092592        0.5428971923076924        0        
C4        C        0.9687500000000001        0.037037        0.5428971923076924        0        
C1        C        0.9375        0.12963        0.5428971923076924        0        
C2        C        0.9687500000000001        0.185185        0.5428971923076924        0        
C3        C        0.9375        0.203703        0.5428971923076924        0        
C4        C        0.9687500000000001        0.148148        0.5428971923076924        0        
C_FG        C        0.9375        0.24074099999999998        0.5428971923076924        0.2        
C2        C        0.9687500000000001        0.296297        0.5428971923076924        0        
C3        C        0.9375        0.314815        0.5428971923076924        0        
C4        C        0.9687500000000001        0.259259        0.5428971923076924        0        
C1        C        0.9375        0.351852        0.5428971923076924        0        
C2        C        0.9687500000000001        0.407408        0.5428971923076924        0        
C3        C        0.9375        0.42592500000000005        0.5428971923076924        0        
C4        C        0.9687500000000001        0.37037        0.5428971923076924        0        
C_FG        C        0.9375        0.46296300000000007        0.5428971923076924        0.2        
C2        C        0.9687500000000001        0.518519        0.5428971923076924        0        
C3        C        0.9375        0.537037        0.5428971923076924        0        
C4        C        0.9687500000000001        0.481481        0.5428971923076924        0        
C1        C        0.9375        0.574075        0.5428971923076924        0        
C2        C        0.9687500000000001        0.62963        0.5428971923076924        0        
C3        C        0.9375        0.648148        0.5428971923076924        0        
C4        C        0.9687500000000001        0.592592        0.5428971923076924        0        
C_FG        C        0.0        0.685186        0.5428971923076924        0.2        
C1        C        0.0625        0.685186        0.5428971923076924        0        
C1        C        0.125        0.685186        0.5428971923076924        0        
C_FG        C        0.1875        0.685186        0.5428971923076924        0.2        
C1        C        0.25        0.685186        0.5428971923076924        0        
C1        C        0.3125        0.685186        0.5428971923076924        0        
C_FG        C        0.375        0.685186        0.5428971923076924        0.2        
C1        C        0.4375        0.685186        0.5428971923076924        0        
C1        C        0.5        0.685186        0.5428971923076924        0        
C_FG        C        0.5625        0.685186        0.5428971923076924        0.2        
C1        C        0.625        0.685186        0.5428971923076924        0        
C1        C        0.6875        0.685186        0.5428971923076924        0        
C_FG        C        0.75        0.685186        0.5428971923076924        0.2        
C1        C        0.8125        0.685186        0.5428971923076924        0        
C1        C        0.875        0.685186        0.5428971923076924        0        
C_FG        C        0.9375        0.685186        0.5428971923076924        0.2        
C2        C        0.03125        0.740741        0.5428971923076924        0        
C2        C        0.09375        0.740741        0.5428971923076924        0        
C2        C        0.15625        0.740741        0.5428971923076924        0        
C2        C        0.21875        0.740741        0.5428971923076924        0        
C2        C        0.28125        0.740741        0.5428971923076924        0        
C2        C        0.34375        0.740741        0.5428971923076924        0        
C2        C        0.40625        0.740741        0.5428971923076924        0        
C2        C        0.46875        0.740741        0.5428971923076924        0        
C2        C        0.53125        0.740741        0.5428971923076924        0        
C2        C        0.59375        0.740741        0.5428971923076924        0        
C2        C        0.65625        0.740741        0.5428971923076924        0        
C2        C        0.71875        0.740741        0.5428971923076924        0        
C2        C        0.78125        0.740741        0.5428971923076924        0        
C2        C        0.84375        0.740741        0.5428971923076924        0        
C2        C        0.9062500000000001        0.740741        0.5428971923076924        0        
C2        C        0.9687500000000001        0.740741        0.5428971923076924        0        
C3        C        0.0        0.759259        0.5428971923076924        0        
C3        C        0.0625        0.759259        0.5428971923076924        0        
C3        C        0.125        0.759259        0.5428971923076924        0        
C3        C        0.1875        0.759259        0.5428971923076924        0        
C3        C        0.25        0.759259        0.5428971923076924        0        
C3        C        0.3125        0.759259        0.5428971923076924        0        
C3        C        0.375        0.759259        0.5428971923076924        0        
C3        C        0.4375        0.759259        0.5428971923076924        0        
C3        C        0.5        0.759259        0.5428971923076924        0        
C3        C        0.5625        0.759259        0.5428971923076924        0        
C3        C        0.625        0.759259        0.5428971923076924        0        
C3        C        0.6875        0.759259        0.5428971923076924        0        
C3        C        0.75        0.759259        0.5428971923076924        0        
C3        C        0.8125        0.759259        0.5428971923076924        0        
C3        C        0.875        0.759259        0.5428971923076924        0        
C3        C        0.9375        0.759259        0.5428971923076924        0        
C4        C        0.03125        0.703703        0.5428971923076924        0        
C4        C        0.09375        0.703703        0.5428971923076924        0        
C4        C        0.15625        0.703703        0.5428971923076924        0        
C4        C        0.21875        0.703703        0.5428971923076924        0        
C4        C        0.28125        0.703703        0.5428971923076924        0        
C4        C        0.34375        0.703703        0.5428971923076924        0        
C4        C        0.40625        0.703703        0.5428971923076924        0        
C4        C        0.46875        0.703703        0.5428971923076924        0        
C4        C        0.53125        0.703703        0.5428971923076924        0        
C4        C        0.59375        0.703703        0.5428971923076924        0        
C4        C        0.65625        0.703703        0.5428971923076924        0        
C4        C        0.71875        0.703703        0.5428971923076924        0        
C4        C        0.78125        0.703703        0.5428971923076924        0        
C4        C        0.84375        0.703703        0.5428971923076924        0        
C4        C        0.9062500000000001        0.703703        0.5428971923076924        0        
C4        C        0.9687500000000001        0.703703        0.5428971923076924        0        
C1        C        0.0        0.796297        0.5428971923076924        0        
C1        C        0.0625        0.796297        0.5428971923076924        0        
C1        C        0.125        0.796297        0.5428971923076924        0        
C1        C        0.1875        0.796297        0.5428971923076924        0        
C1        C        0.25        0.796297        0.5428971923076924        0        
C1        C        0.3125        0.796297        0.5428971923076924        0        
C1        C        0.375        0.796297        0.5428971923076924        0        
C1        C        0.4375        0.796297        0.5428971923076924        0        
C1        C        0.5        0.796297        0.5428971923076924        0        
C1        C        0.5625        0.796297        0.5428971923076924        0        
C1        C        0.625        0.796297        0.5428971923076924        0        
C1        C        0.6875        0.796297        0.5428971923076924        0        
C1        C        0.75        0.796297        0.5428971923076924        0        
C1        C        0.8125        0.796297        0.5428971923076924        0        
C1        C        0.875        0.796297        0.5428971923076924        0        
C1        C        0.9375        0.796297        0.5428971923076924        0        
C2        C        0.03125        0.851852        0.5428971923076924        0        
C2        C        0.09375        0.851852        0.5428971923076924        0        
C2        C        0.15625        0.851852        0.5428971923076924        0        
C2        C        0.21875        0.851852        0.5428971923076924        0        
C2        C        0.28125        0.851852        0.5428971923076924        0        
C2        C        0.34375        0.851852        0.5428971923076924        0        
C2        C        0.40625        0.851852        0.5428971923076924        0        
C2        C        0.46875        0.851852        0.5428971923076924        0        
C2        C        0.53125        0.851852        0.5428971923076924        0        
C2        C        0.59375        0.851852        0.5428971923076924        0        
C2        C        0.65625        0.851852        0.5428971923076924        0        
C2        C        0.71875        0.851852        0.5428971923076924        0        
C2        C        0.78125        0.851852        0.5428971923076924        0        
C2        C        0.84375        0.851852        0.5428971923076924        0        
C2        C        0.9062500000000001        0.851852        0.5428971923076924        0        
C2        C        0.9687500000000001        0.851852        0.5428971923076924        0        
C3        C        0.0        0.87037        0.5428971923076924        0        
C3        C        0.0625        0.87037        0.5428971923076924        0        
C3        C        0.125        0.87037        0.5428971923076924        0        
C3        C        0.1875        0.87037        0.5428971923076924        0        
C3        C        0.25        0.87037        0.5428971923076924        0        
C3        C        0.3125        0.87037        0.5428971923076924        0        
C3        C        0.375        0.87037        0.5428971923076924        0        
C3        C        0.4375        0.87037        0.5428971923076924        0        
C3        C        0.5        0.87037        0.5428971923076924        0        
C3        C        0.5625        0.87037        0.5428971923076924        0        
C3        C        0.625        0.87037        0.5428971923076924        0        
C3        C        0.6875        0.87037        0.5428971923076924        0        
C3        C        0.75        0.87037        0.5428971923076924        0        
C3        C        0.8125        0.87037        0.5428971923076924        0        
C3        C        0.875        0.87037        0.5428971923076924        0        
C3        C        0.9375        0.87037        0.5428971923076924        0        
C4        C        0.03125        0.814814        0.5428971923076924        0        
C4        C        0.09375        0.814814        0.5428971923076924        0        
C4        C        0.15625        0.814814        0.5428971923076924        0        
C4        C        0.21875        0.814814        0.5428971923076924        0        
C4        C        0.28125        0.814814        0.5428971923076924        0        
C4        C        0.34375        0.814814        0.5428971923076924        0        
C4        C        0.40625        0.814814        0.5428971923076924        0        
C4        C        0.46875        0.814814        0.5428971923076924        0        
C4        C        0.53125        0.814814        0.5428971923076924        0        
C4        C        0.59375        0.814814        0.5428971923076924        0        
C4        C        0.65625        0.814814        0.5428971923076924        0        
C4        C        0.71875        0.814814        0.5428971923076924        0        
C4        C        0.78125        0.814814        0.5428971923076924        0        
C4        C        0.84375        0.814814        0.5428971923076924        0        
C4        C        0.9062500000000001        0.814814        0.5428971923076924        0        
C4        C        0.9687500000000001        0.814814        0.5428971923076924        0        
C_FG        C        0.0        0.907408        0.5428971923076924        0.2        
C1        C        0.0625        0.907408        0.5428971923076924        0        
C1        C        0.125        0.907408        0.5428971923076924        0        
C_FG        C        0.1875        0.907408        0.5428971923076924        0.2        
C1        C        0.25        0.907408        0.5428971923076924        0        
C1        C        0.3125        0.907408        0.5428971923076924        0        
C_FG        C        0.375        0.907408        0.5428971923076924        0.2        
C1        C        0.4375        0.907408        0.5428971923076924        0        
C1        C        0.5        0.907408        0.5428971923076924        0        
C_FG        C        0.5625        0.907408        0.5428971923076924        0.2        
C1        C        0.625        0.907408        0.5428971923076924        0        
C1        C        0.6875        0.907408        0.5428971923076924        0        
C_FG        C        0.75        0.907408        0.5428971923076924        0.2        
C1        C        0.8125        0.907408        0.5428971923076924        0        
C1        C        0.875        0.907408        0.5428971923076924        0        
C_FG        C        0.9375        0.907408        0.5428971923076924        0.2        
C2        C        0.03125        0.962963        0.5428971923076924        0        
C2        C        0.09375        0.962963        0.5428971923076924        0        
C2        C        0.15625        0.962963        0.5428971923076924        0        
C2        C        0.21875        0.962963        0.5428971923076924        0        
C2        C        0.28125        0.962963        0.5428971923076924        0        
C2        C        0.34375        0.962963        0.5428971923076924        0        
C2        C        0.40625        0.962963        0.5428971923076924        0        
C2        C        0.46875        0.962963        0.5428971923076924        0        
C2        C        0.53125        0.962963        0.5428971923076924        0        
C2        C        0.59375        0.962963        0.5428971923076924        0        
C2        C        0.65625        0.962963        0.5428971923076924        0        
C2        C        0.71875        0.962963        0.5428971923076924        0        
C2        C        0.78125        0.962963        0.5428971923076924        0        
C2        C        0.84375        0.962963        0.5428971923076924        0        
C2        C        0.9062500000000001        0.962963        0.5428971923076924        0        
C2        C        0.9687500000000001        0.962963        0.5428971923076924        0        
C3        C        0.0        0.9814809999999999        0.5428971923076924        0        
C3        C        0.0625        0.9814809999999999        0.5428971923076924        0        
C3        C        0.125        0.9814809999999999        0.5428971923076924        0        
C3        C        0.1875        0.9814809999999999        0.5428971923076924        0        
C3        C        0.25        0.9814809999999999        0.5428971923076924        0        
C3        C        0.3125        0.9814809999999999        0.5428971923076924        0        
C3        C        0.375        0.9814809999999999        0.5428971923076924        0        
C3        C        0.4375        0.9814809999999999        0.5428971923076924        0        
C3        C        0.5        0.9814809999999999        0.5428971923076924        0        
C3        C        0.5625        0.9814809999999999        0.5428971923076924        0        
C3        C        0.625        0.9814809999999999        0.5428971923076924        0        
C3        C        0.6875        0.9814809999999999        0.5428971923076924        0        
C3        C        0.75        0.9814809999999999        0.5428971923076924        0        
C3        C        0.8125        0.9814809999999999        0.5428971923076924        0        
C3        C        0.875        0.9814809999999999        0.5428971923076924        0        
C3        C        0.9375        0.9814809999999999        0.5428971923076924        0        
C4        C        0.03125        0.925925        0.5428971923076924        0        
C4        C        0.09375        0.925925        0.5428971923076924        0        
C4        C        0.15625        0.925925        0.5428971923076924        0        
C4        C        0.21875        0.925925        0.5428971923076924        0        
C4        C        0.28125        0.925925        0.5428971923076924        0        
C4        C        0.34375        0.925925        0.5428971923076924        0        
C4        C        0.40625        0.925925        0.5428971923076924        0        
C4        C        0.46875        0.925925        0.5428971923076924        0        
C4        C        0.53125        0.925925        0.5428971923076924        0        
C4        C        0.59375        0.925925        0.5428971923076924        0        
C4        C        0.65625        0.925925        0.5428971923076924        0        
C4        C        0.71875        0.925925        0.5428971923076924        0        
C4        C        0.78125        0.925925        0.5428971923076924        0        
C4        C        0.84375        0.925925        0.5428971923076924        0        
C4        C        0.9062500000000001        0.925925        0.5428971923076924        0        
C4        C        0.9687500000000001        0.925925        0.5428971923076924        0        
O_OH        O        0.0        0.018519        0.021551217948717945        -0.64        
O_OH        O        0.0        0.24074099999999998        0.021551217948717945        -0.64        
O_OH        O        0.0        0.46296300000000007        0.021551217948717945        -0.64        
O_OH        O        0.1875        0.018519        0.021551217948717945        -0.64        
O_OH        O        0.1875        0.24074099999999998        0.021551217948717945        -0.64        
O_OH        O        0.1875        0.46296300000000007        0.021551217948717945        -0.64        
O_OH        O        0.375        0.018519        0.021551217948717945        -0.64        
O_OH        O        0.375        0.24074099999999998        0.021551217948717945        -0.64        
O_OH        O        0.375        0.46296300000000007        0.021551217948717945        -0.64        
O_OH        O        0.5625        0.018519        0.021551217948717945        -0.64        
O_OH        O        0.5625        0.24074099999999998        0.021551217948717945        -0.64        
O_OH        O        0.5625        0.46296300000000007        0.021551217948717945        -0.64        
O_OH        O        0.75        0.018519        0.021551217948717945        -0.64        
O_OH        O        0.75        0.24074099999999998        0.021551217948717945        -0.64        
O_OH        O        0.75        0.46296300000000007        0.021551217948717945        -0.64        
O_OH        O        0.9375        0.018519        0.021551217948717945        -0.64        
O_OH        O        0.9375        0.24074099999999998        0.021551217948717945        -0.64        
O_OH        O        0.9375        0.46296300000000007        0.021551217948717945        -0.64        
O_OH        O        0.0        0.685186        0.021551217948717945        -0.64        
O_OH        O        0.1875        0.685186        0.021551217948717945        -0.64        
O_OH        O        0.375        0.685186        0.021551217948717945        -0.64        
O_OH        O        0.5625        0.685186        0.021551217948717945        -0.64        
O_OH        O        0.75        0.685186        0.021551217948717945        -0.64        
O_OH        O        0.9375        0.685186        0.021551217948717945        -0.64        
O_OH        O        0.0        0.907408        0.021551217948717945        -0.64        
O_OH        O        0.1875        0.907408        0.021551217948717945        -0.64        
O_OH        O        0.375        0.907408        0.021551217948717945        -0.64        
O_OH        O        0.5625        0.907408        0.021551217948717945        -0.64        
O_OH        O        0.75        0.907408        0.021551217948717945        -0.64        
O_OH        O        0.9375        0.907408        0.021551217948717945        -0.64        
O_OH        O        0.0        0.018519        0.6347563461538461        -0.64        
O_OH        O        0.0        0.24074099999999998        0.6347563461538461        -0.64        
O_OH        O        0.0        0.46296300000000007        0.6347563461538461        -0.64        
O_OH        O        0.1875        0.018519        0.6347563461538461        -0.64        
O_OH        O        0.1875        0.24074099999999998        0.6347563461538461        -0.64        
O_OH        O        0.1875        0.46296300000000007        0.6347563461538461        -0.64        
O_OH        O        0.375        0.018519        0.6347563461538461        -0.64        
O_OH        O        0.375        0.24074099999999998        0.6347563461538461        -0.64        
O_OH        O        0.375        0.46296300000000007        0.6347563461538461        -0.64        
O_OH        O        0.5625        0.018519        0.6347563461538461        -0.64        
O_OH        O        0.5625        0.24074099999999998        0.6347563461538461        -0.64        
O_OH        O        0.5625        0.46296300000000007        0.6347563461538461        -0.64        
O_OH        O        0.75        0.018519        0.6347563461538461        -0.64        
O_OH        O        0.75        0.24074099999999998        0.6347563461538461        -0.64        
O_OH        O        0.75        0.46296300000000007        0.6347563461538461        -0.64        
O_OH        O        0.9375        0.018519        0.6347563461538461        -0.64        
O_OH        O        0.9375        0.24074099999999998        0.6347563461538461        -0.64        
O_OH        O        0.9375        0.46296300000000007        0.6347563461538461        -0.64        
O_OH        O        0.0        0.685186        0.6347563461538461        -0.64        
O_OH        O        0.1875        0.685186        0.6347563461538461        -0.64        
O_OH        O        0.375        0.685186        0.6347563461538461        -0.64        
O_OH        O        0.5625        0.685186        0.6347563461538461        -0.64        
O_OH        O        0.75        0.685186        0.6347563461538461        -0.64        
O_OH        O        0.9375        0.685186        0.6347563461538461        -0.64        
O_OH        O        0.0        0.907408        0.6347563461538461        -0.64        
O_OH        O        0.1875        0.907408        0.6347563461538461        -0.64        
O_OH        O        0.375        0.907408        0.6347563461538461        -0.64        
O_OH        O        0.5625        0.907408        0.6347563461538461        -0.64        
O_OH        O        0.75        0.907408        0.6347563461538461        -0.64        
O_OH        O        0.9375        0.907408        0.6347563461538461        -0.64        
H_OH        H        0.022629656803087855        0.021736541235139687        0.0        0.44        
H_OH        H        -0.022665042848325736        0.24368435775364922        0.0        0.44        
H_OH        H        -0.003395134866758282        0.4861560145879406        0.0        0.44        
H_OH        H        0.20682262693728112        0.031031800789666945        0.0        0.44        
H_OH        H        0.20536561082459415        0.25535864063237673        0.0        0.44        
H_OH        H        0.1787476324077626        0.48462703106870614        0.0        0.44        
H_OH        H        0.3536335033677052        0.026820993343543455        0.0        0.44        
H_OH        H        0.3864541043994272        0.26103371457321556        0.0        0.44        
H_OH        H        0.35512440771130616        0.4745270081819653        0.0        0.44        
H_OH        H        0.5852783942490916        0.020317486190191265        0.0        0.44        
H_OH        H        0.5433408298188105        0.2535159532423289        0.0        0.44        
H_OH        H        0.5852826982637017        0.46470308169190655        0.0        0.44        
H_OH        H        0.764395271845413        0.036730749973269736        0.0        0.44        
H_OH        H        0.7703526217590985        0.25139471263192253        0.0        0.44        
H_OH        H        0.7614723793892053        0.4832448316168836        0.0        0.44        
H_OH        H        0.9163343795247939        0.027346651016865033        0.0        0.44        
H_OH        H        0.9600518135927799        0.24449056909311803        0.0        0.44        
H_OH        H        0.9524883008156385        0.4806633679549941        0.0        0.44        
H_OH        H        0.010617809537846485        0.7059525140737624        0.0        0.44        
H_OH        H        0.19593745456843745        0.7069813069255454        0.0        0.44        
H_OH        H        0.39722773779761306        0.6906039021003192        0.0        0.44        
H_OH        H        0.5396983102082297        0.6866404728171358        0.0        0.44        
H_OH        H        0.7599220984408989        0.7063120123681021        0.0        0.44        
H_OH        H        0.9496447024267456        0.7050510016876327        0.0        0.44        
H_OH        H        0.006427202653271549        0.9299141815753958        0.0        0.44        
H_OH        H        0.16469100050421717        0.9087361998859631        0.0        0.44        
H_OH        H        0.39746495387049974        0.9116718282432509        0.0        0.44        
H_OH        H        0.5607884375598176        0.9307955386102073        0.0        0.44        
H_OH        H        0.7629470612448758        0.9267315666166313        0.0        0.44        
H_OH        H        0.9426085267630517        0.9302675769913645        0.0        0.44        
H_OH        H        -0.01603344216457923        0.03522626943386608        0.6563075641025641        0.44        
H_OH        H        -0.003736996981057771        0.2638785509057379        0.6563075641025641        0.44        
H_OH        H        0.019442882327263152        0.4752779128717151        0.6563075641025641        0.44        
H_OH        H        0.21034459059164973        0.018746261420160972        0.6563075641025641        0.44        
H_OH        H        0.16876676318731146        0.2541652040497869        0.6563075641025641        0.44        
H_OH        H        0.2038466762683488        0.4793472439345011        0.6563075641025641        0.44        
H_OH        H        0.3539144741678919        0.027546401026413158        0.6563075641025641        0.44        
H_OH        H        0.3521582783809286        0.24117664600150546        0.6563075641025641        0.44        
H_OH        H        0.3561974378352618        0.47628466554318594        0.6563075641025641        0.44        
H_OH        H        0.5402305083643992        0.023753076906166834        0.6563075641025641        0.44        
H_OH        H        0.5772023614718707        0.25869233659941626        0.6563075641025641        0.44        
H_OH        H        0.5739805159807988        0.48323997872351077        0.6563075641025641        0.44        
H_OH        H        0.7562088154506638        0.041089700855818485        0.6563075641025641        0.44        
H_OH        H        0.7668314523397353        0.256599508911689        0.6563075641025641        0.44        
H_OH        H        0.7277556490810995        0.4683085597273045        0.6563075641025641        0.44        
H_OH        H        0.9211884538421731        0.03494010207306383        0.6563075641025641        0.44        
H_OH        H        0.9592329979622969        0.24797117388540593        0.6563075641025641        0.44        
H_OH        H        0.9179507213231565        0.4750990940426143        0.6563075641025641        0.44        
H_OH        H        0.00018164312929835444        0.7086387094138126        0.6563075641025641        0.44        
H_OH        H        0.20093548118170498        0.7041549145595468        0.6563075641025641        0.44        
H_OH        H        0.39023485137001734        0.7026631203148007        0.6563075641025641        0.44        
H_OH        H        0.5825875763854781        0.6963573015051283        0.6563075641025641        0.44        
H_OH        H        0.7279937183798099        0.6914850249051034        0.6563075641025641        0.44        
H_OH        H        0.9576082221139789        0.6963180870681517        0.6563075641025641        0.44        
H_OH        H        0.022078292532367        0.9134356018856834        0.6563075641025641        0.44        
H_OH        H        0.18085010114961694        0.9298458914625507        0.6563075641025641        0.44        
H_OH        H        0.39778328966031795        0.9091399017929748        0.6563075641025641        0.44        
H_OH        H        0.5676350889179498        0.9302613038662126        0.6563075641025641        0.44        
H_OH        H        0.7481889989391577        0.9307876449456247        0.6563075641025641        0.44        
H_OH        H        0.9270761836414604        0.9282778375597789        0.6563075641025641        0.44        
