data_graphite_ortho

_audit_creation_method RASPA-1.0
_audit_creation_date 2012-2-3
_audit_author_name 'David Dubbeldam'

_cell_length_a    39.36    
_cell_length_b    38.34    
_cell_length_c    46.3    
_cell_angle_alpha 90
_cell_angle_beta  90
_cell_angle_gamma 90
_cell_volume      69869.59      

_symmetry_cell_setting          triclinic
_symmetry_space_group_name_Hall 'P 1'
_symmetry_space_group_name_H-M  'P 1'
_symmetry_Int_Tables_number     1

_symmetry_equiv_pos_as_xyz 'x,y,z'

loop_
_atom_site_label
_atom_site_type_symbol
_atom_site_fract_x
_atom_site_fract_y
_atom_site_fract_z
_atom_site_charge
C1        C        0.0        0.018519        0.259179        0        
C2        C        0.03125        0.074075        0.259179        0        
C3        C        0.0        0.092592        0.259179        0        
C4        C        0.03125        0.037037        0.259179        0        
C1        C        0.0        0.12963        0.259179        0        
C2        C        0.03125        0.185185        0.259179        0        
C3        C        0.0        0.203703        0.259179        0        
C4        C        0.03125        0.148148        0.259179        0        
C1        C        0.0        0.24074099999999998        0.259179        0        
C2        C        0.03125        0.296297        0.259179        0        
C3        C        0.0        0.314815        0.259179        0        
C4        C        0.03125        0.259259        0.259179        0        
C1        C        0.0        0.351852        0.259179        0        
C2        C        0.03125        0.407408        0.259179        0        
C3        C        0.0        0.42592500000000005        0.259179        0        
C4        C        0.03125        0.37037        0.259179        0        
C1        C        0.0        0.46296300000000007        0.259179        0        
C2        C        0.03125        0.518519        0.259179        0        
C3        C        0.0        0.537037        0.259179        0        
C4        C        0.03125        0.481481        0.259179        0        
C1        C        0.0        0.574075        0.259179        0        
C2        C        0.03125        0.62963        0.259179        0        
C3        C        0.0        0.648148        0.259179        0        
C4        C        0.03125        0.592592        0.259179        0        
C1        C        0.0625        0.018519        0.259179        0        
C2        C        0.09375        0.074075        0.259179        0        
C3        C        0.0625        0.092592        0.259179        0        
C4        C        0.09375        0.037037        0.259179        0        
C1        C        0.0625        0.12963        0.259179        0        
C2        C        0.09375        0.185185        0.259179        0        
C3        C        0.0625        0.203703        0.259179        0        
C4        C        0.09375        0.148148        0.259179        0        
C1        C        0.0625        0.24074099999999998        0.259179        0        
C2        C        0.09375        0.296297        0.259179        0        
C3        C        0.0625        0.314815        0.259179        0        
C4        C        0.09375        0.259259        0.259179        0        
C1        C        0.0625        0.351852        0.259179        0        
C2        C        0.09375        0.407408        0.259179        0        
C3        C        0.0625        0.42592500000000005        0.259179        0        
C4        C        0.09375        0.37037        0.259179        0        
C1        C        0.0625        0.46296300000000007        0.259179        0        
C2        C        0.09375        0.518519        0.259179        0        
C3        C        0.0625        0.537037        0.259179        0        
C4        C        0.09375        0.481481        0.259179        0        
C1        C        0.0625        0.574075        0.259179        0        
C2        C        0.09375        0.62963        0.259179        0        
C3        C        0.0625        0.648148        0.259179        0        
C4        C        0.09375        0.592592        0.259179        0        
C1        C        0.125        0.018519        0.259179        0        
C2        C        0.15625        0.074075        0.259179        0        
C3        C        0.125        0.092592        0.259179        0        
C4        C        0.15625        0.037037        0.259179        0        
C1        C        0.125        0.12963        0.259179        0        
C2        C        0.15625        0.185185        0.259179        0        
C3        C        0.125        0.203703        0.259179        0        
C4        C        0.15625        0.148148        0.259179        0        
C1        C        0.125        0.24074099999999998        0.259179        0        
C2        C        0.15625        0.296297        0.259179        0        
C3        C        0.125        0.314815        0.259179        0        
C4        C        0.15625        0.259259        0.259179        0        
C1        C        0.125        0.351852        0.259179        0        
C2        C        0.15625        0.407408        0.259179        0        
C3        C        0.125        0.42592500000000005        0.259179        0        
C4        C        0.15625        0.37037        0.259179        0        
C1        C        0.125        0.46296300000000007        0.259179        0        
C2        C        0.15625        0.518519        0.259179        0        
C3        C        0.125        0.537037        0.259179        0        
C4        C        0.15625        0.481481        0.259179        0        
C1        C        0.125        0.574075        0.259179        0        
C2        C        0.15625        0.62963        0.259179        0        
C3        C        0.125        0.648148        0.259179        0        
C4        C        0.15625        0.592592        0.259179        0        
C1        C        0.1875        0.018519        0.259179        0        
C2        C        0.21875        0.074075        0.259179        0        
C3        C        0.1875        0.092592        0.259179        0        
C4        C        0.21875        0.037037        0.259179        0        
C1        C        0.1875        0.12963        0.259179        0        
C2        C        0.21875        0.185185        0.259179        0        
C3        C        0.1875        0.203703        0.259179        0        
C4        C        0.21875        0.148148        0.259179        0        
C1        C        0.1875        0.24074099999999998        0.259179        0        
C2        C        0.21875        0.296297        0.259179        0        
C3        C        0.1875        0.314815        0.259179        0        
C4        C        0.21875        0.259259        0.259179        0        
C1        C        0.1875        0.351852        0.259179        0        
C2        C        0.21875        0.407408        0.259179        0        
C3        C        0.1875        0.42592500000000005        0.259179        0        
C4        C        0.21875        0.37037        0.259179        0        
C1        C        0.1875        0.46296300000000007        0.259179        0        
C2        C        0.21875        0.518519        0.259179        0        
C3        C        0.1875        0.537037        0.259179        0        
C4        C        0.21875        0.481481        0.259179        0        
C1        C        0.1875        0.574075        0.259179        0        
C2        C        0.21875        0.62963        0.259179        0        
C3        C        0.1875        0.648148        0.259179        0        
C4        C        0.21875        0.592592        0.259179        0        
C1        C        0.25        0.018519        0.259179        0        
C2        C        0.28125        0.074075        0.259179        0        
C3        C        0.25        0.092592        0.259179        0        
C4        C        0.28125        0.037037        0.259179        0        
C1        C        0.25        0.12963        0.259179        0        
C2        C        0.28125        0.185185        0.259179        0        
C3        C        0.25        0.203703        0.259179        0        
C4        C        0.28125        0.148148        0.259179        0        
C1        C        0.25        0.24074099999999998        0.259179        0        
C2        C        0.28125        0.296297        0.259179        0        
C3        C        0.25        0.314815        0.259179        0        
C4        C        0.28125        0.259259        0.259179        0        
C1        C        0.25        0.351852        0.259179        0        
C2        C        0.28125        0.407408        0.259179        0        
C3        C        0.25        0.42592500000000005        0.259179        0        
C4        C        0.28125        0.37037        0.259179        0        
C1        C        0.25        0.46296300000000007        0.259179        0        
C2        C        0.28125        0.518519        0.259179        0        
C3        C        0.25        0.537037        0.259179        0        
C4        C        0.28125        0.481481        0.259179        0        
C1        C        0.25        0.574075        0.259179        0        
C2        C        0.28125        0.62963        0.259179        0        
C3        C        0.25        0.648148        0.259179        0        
C4        C        0.28125        0.592592        0.259179        0        
C1        C        0.3125        0.018519        0.259179        0        
C2        C        0.34375        0.074075        0.259179        0        
C3        C        0.3125        0.092592        0.259179        0        
C4        C        0.34375        0.037037        0.259179        0        
C1        C        0.3125        0.12963        0.259179        0        
C2        C        0.34375        0.185185        0.259179        0        
C3        C        0.3125        0.203703        0.259179        0        
C4        C        0.34375        0.148148        0.259179        0        
C1        C        0.3125        0.24074099999999998        0.259179        0        
C2        C        0.34375        0.296297        0.259179        0        
C3        C        0.3125        0.314815        0.259179        0        
C4        C        0.34375        0.259259        0.259179        0        
C1        C        0.3125        0.351852        0.259179        0        
C2        C        0.34375        0.407408        0.259179        0        
C3        C        0.3125        0.42592500000000005        0.259179        0        
C4        C        0.34375        0.37037        0.259179        0        
C1        C        0.3125        0.46296300000000007        0.259179        0        
C2        C        0.34375        0.518519        0.259179        0        
C3        C        0.3125        0.537037        0.259179        0        
C4        C        0.34375        0.481481        0.259179        0        
C1        C        0.3125        0.574075        0.259179        0        
C2        C        0.34375        0.62963        0.259179        0        
C3        C        0.3125        0.648148        0.259179        0        
C4        C        0.34375        0.592592        0.259179        0        
C1        C        0.375        0.018519        0.259179        0        
C2        C        0.40625        0.074075        0.259179        0        
C3        C        0.375        0.092592        0.259179        0        
C4        C        0.40625        0.037037        0.259179        0        
C1        C        0.375        0.12963        0.259179        0        
C2        C        0.40625        0.185185        0.259179        0        
C3        C        0.375        0.203703        0.259179        0        
C4        C        0.40625        0.148148        0.259179        0        
C1        C        0.375        0.24074099999999998        0.259179        0        
C2        C        0.40625        0.296297        0.259179        0        
C3        C        0.375        0.314815        0.259179        0        
C4        C        0.40625        0.259259        0.259179        0        
C1        C        0.375        0.351852        0.259179        0        
C2        C        0.40625        0.407408        0.259179        0        
C3        C        0.375        0.42592500000000005        0.259179        0        
C4        C        0.40625        0.37037        0.259179        0        
C1        C        0.375        0.46296300000000007        0.259179        0        
C2        C        0.40625        0.518519        0.259179        0        
C3        C        0.375        0.537037        0.259179        0        
C4        C        0.40625        0.481481        0.259179        0        
C1        C        0.375        0.574075        0.259179        0        
C2        C        0.40625        0.62963        0.259179        0        
C3        C        0.375        0.648148        0.259179        0        
C4        C        0.40625        0.592592        0.259179        0        
C1        C        0.4375        0.018519        0.259179        0        
C2        C        0.46875        0.074075        0.259179        0        
C3        C        0.4375        0.092592        0.259179        0        
C4        C        0.46875        0.037037        0.259179        0        
C1        C        0.4375        0.12963        0.259179        0        
C2        C        0.46875        0.185185        0.259179        0        
C3        C        0.4375        0.203703        0.259179        0        
C4        C        0.46875        0.148148        0.259179        0        
C1        C        0.4375        0.24074099999999998        0.259179        0        
C2        C        0.46875        0.296297        0.259179        0        
C3        C        0.4375        0.314815        0.259179        0        
C4        C        0.46875        0.259259        0.259179        0        
C1        C        0.4375        0.351852        0.259179        0        
C2        C        0.46875        0.407408        0.259179        0        
C3        C        0.4375        0.42592500000000005        0.259179        0        
C4        C        0.46875        0.37037        0.259179        0        
C1        C        0.4375        0.46296300000000007        0.259179        0        
C2        C        0.46875        0.518519        0.259179        0        
C3        C        0.4375        0.537037        0.259179        0        
C4        C        0.46875        0.481481        0.259179        0        
C1        C        0.4375        0.574075        0.259179        0        
C2        C        0.46875        0.62963        0.259179        0        
C3        C        0.4375        0.648148        0.259179        0        
C4        C        0.46875        0.592592        0.259179        0        
C1        C        0.5        0.018519        0.259179        0        
C2        C        0.53125        0.074075        0.259179        0        
C3        C        0.5        0.092592        0.259179        0        
C4        C        0.53125        0.037037        0.259179        0        
C1        C        0.5        0.12963        0.259179        0        
C2        C        0.53125        0.185185        0.259179        0        
C3        C        0.5        0.203703        0.259179        0        
C4        C        0.53125        0.148148        0.259179        0        
C1        C        0.5        0.24074099999999998        0.259179        0        
C2        C        0.53125        0.296297        0.259179        0        
C3        C        0.5        0.314815        0.259179        0        
C4        C        0.53125        0.259259        0.259179        0        
C1        C        0.5        0.351852        0.259179        0        
C2        C        0.53125        0.407408        0.259179        0        
C3        C        0.5        0.42592500000000005        0.259179        0        
C4        C        0.53125        0.37037        0.259179        0        
C1        C        0.5        0.46296300000000007        0.259179        0        
C2        C        0.53125        0.518519        0.259179        0        
C3        C        0.5        0.537037        0.259179        0        
C4        C        0.53125        0.481481        0.259179        0        
C1        C        0.5        0.574075        0.259179        0        
C2        C        0.53125        0.62963        0.259179        0        
C3        C        0.5        0.648148        0.259179        0        
C4        C        0.53125        0.592592        0.259179        0        
C1        C        0.5625        0.018519        0.259179        0        
C2        C        0.59375        0.074075        0.259179        0        
C3        C        0.5625        0.092592        0.259179        0        
C4        C        0.59375        0.037037        0.259179        0        
C1        C        0.5625        0.12963        0.259179        0        
C2        C        0.59375        0.185185        0.259179        0        
C3        C        0.5625        0.203703        0.259179        0        
C4        C        0.59375        0.148148        0.259179        0        
C1        C        0.5625        0.24074099999999998        0.259179        0        
C2        C        0.59375        0.296297        0.259179        0        
C3        C        0.5625        0.314815        0.259179        0        
C4        C        0.59375        0.259259        0.259179        0        
C1        C        0.5625        0.351852        0.259179        0        
C2        C        0.59375        0.407408        0.259179        0        
C3        C        0.5625        0.42592500000000005        0.259179        0        
C4        C        0.59375        0.37037        0.259179        0        
C1        C        0.5625        0.46296300000000007        0.259179        0        
C2        C        0.59375        0.518519        0.259179        0        
C3        C        0.5625        0.537037        0.259179        0        
C4        C        0.59375        0.481481        0.259179        0        
C1        C        0.5625        0.574075        0.259179        0        
C2        C        0.59375        0.62963        0.259179        0        
C3        C        0.5625        0.648148        0.259179        0        
C4        C        0.59375        0.592592        0.259179        0        
C1        C        0.625        0.018519        0.259179        0        
C2        C        0.65625        0.074075        0.259179        0        
C3        C        0.625        0.092592        0.259179        0        
C4        C        0.65625        0.037037        0.259179        0        
C1        C        0.625        0.12963        0.259179        0        
C2        C        0.65625        0.185185        0.259179        0        
C3        C        0.625        0.203703        0.259179        0        
C4        C        0.65625        0.148148        0.259179        0        
C1        C        0.625        0.24074099999999998        0.259179        0        
C2        C        0.65625        0.296297        0.259179        0        
C3        C        0.625        0.314815        0.259179        0        
C4        C        0.65625        0.259259        0.259179        0        
C1        C        0.625        0.351852        0.259179        0        
C2        C        0.65625        0.407408        0.259179        0        
C3        C        0.625        0.42592500000000005        0.259179        0        
C4        C        0.65625        0.37037        0.259179        0        
C1        C        0.625        0.46296300000000007        0.259179        0        
C2        C        0.65625        0.518519        0.259179        0        
C3        C        0.625        0.537037        0.259179        0        
C4        C        0.65625        0.481481        0.259179        0        
C1        C        0.625        0.574075        0.259179        0        
C2        C        0.65625        0.62963        0.259179        0        
C3        C        0.625        0.648148        0.259179        0        
C4        C        0.65625        0.592592        0.259179        0        
C1        C        0.6875        0.018519        0.259179        0        
C2        C        0.71875        0.074075        0.259179        0        
C3        C        0.6875        0.092592        0.259179        0        
C4        C        0.71875        0.037037        0.259179        0        
C1        C        0.6875        0.12963        0.259179        0        
C2        C        0.71875        0.185185        0.259179        0        
C3        C        0.6875        0.203703        0.259179        0        
C4        C        0.71875        0.148148        0.259179        0        
C1        C        0.6875        0.24074099999999998        0.259179        0        
C2        C        0.71875        0.296297        0.259179        0        
C3        C        0.6875        0.314815        0.259179        0        
C4        C        0.71875        0.259259        0.259179        0        
C1        C        0.6875        0.351852        0.259179        0        
C2        C        0.71875        0.407408        0.259179        0        
C3        C        0.6875        0.42592500000000005        0.259179        0        
C4        C        0.71875        0.37037        0.259179        0        
C1        C        0.6875        0.46296300000000007        0.259179        0        
C2        C        0.71875        0.518519        0.259179        0        
C3        C        0.6875        0.537037        0.259179        0        
C4        C        0.71875        0.481481        0.259179        0        
C1        C        0.6875        0.574075        0.259179        0        
C2        C        0.71875        0.62963        0.259179        0        
C3        C        0.6875        0.648148        0.259179        0        
C4        C        0.71875        0.592592        0.259179        0        
C1        C        0.75        0.018519        0.259179        0        
C2        C        0.78125        0.074075        0.259179        0        
C3        C        0.75        0.092592        0.259179        0        
C4        C        0.78125        0.037037        0.259179        0        
C1        C        0.75        0.12963        0.259179        0        
C2        C        0.78125        0.185185        0.259179        0        
C3        C        0.75        0.203703        0.259179        0        
C4        C        0.78125        0.148148        0.259179        0        
C1        C        0.75        0.24074099999999998        0.259179        0        
C2        C        0.78125        0.296297        0.259179        0        
C3        C        0.75        0.314815        0.259179        0        
C4        C        0.78125        0.259259        0.259179        0        
C1        C        0.75        0.351852        0.259179        0        
C2        C        0.78125        0.407408        0.259179        0        
C3        C        0.75        0.42592500000000005        0.259179        0        
C4        C        0.78125        0.37037        0.259179        0        
C1        C        0.75        0.46296300000000007        0.259179        0        
C2        C        0.78125        0.518519        0.259179        0        
C3        C        0.75        0.537037        0.259179        0        
C4        C        0.78125        0.481481        0.259179        0        
C1        C        0.75        0.574075        0.259179        0        
C2        C        0.78125        0.62963        0.259179        0        
C3        C        0.75        0.648148        0.259179        0        
C4        C        0.78125        0.592592        0.259179        0        
C1        C        0.8125        0.018519        0.259179        0        
C2        C        0.84375        0.074075        0.259179        0        
C3        C        0.8125        0.092592        0.259179        0        
C4        C        0.84375        0.037037        0.259179        0        
C1        C        0.8125        0.12963        0.259179        0        
C2        C        0.84375        0.185185        0.259179        0        
C3        C        0.8125        0.203703        0.259179        0        
C4        C        0.84375        0.148148        0.259179        0        
C1        C        0.8125        0.24074099999999998        0.259179        0        
C2        C        0.84375        0.296297        0.259179        0        
C3        C        0.8125        0.314815        0.259179        0        
C4        C        0.84375        0.259259        0.259179        0        
C1        C        0.8125        0.351852        0.259179        0        
C2        C        0.84375        0.407408        0.259179        0        
C3        C        0.8125        0.42592500000000005        0.259179        0        
C4        C        0.84375        0.37037        0.259179        0        
C1        C        0.8125        0.46296300000000007        0.259179        0        
C2        C        0.84375        0.518519        0.259179        0        
C3        C        0.8125        0.537037        0.259179        0        
C4        C        0.84375        0.481481        0.259179        0        
C1        C        0.8125        0.574075        0.259179        0        
C2        C        0.84375        0.62963        0.259179        0        
C3        C        0.8125        0.648148        0.259179        0        
C4        C        0.84375        0.592592        0.259179        0        
C1        C        0.875        0.018519        0.259179        0        
C2        C        0.9062500000000001        0.074075        0.259179        0        
C3        C        0.875        0.092592        0.259179        0        
C4        C        0.9062500000000001        0.037037        0.259179        0        
C1        C        0.875        0.12963        0.259179        0        
C2        C        0.9062500000000001        0.185185        0.259179        0        
C3        C        0.875        0.203703        0.259179        0        
C4        C        0.9062500000000001        0.148148        0.259179        0        
C1        C        0.875        0.24074099999999998        0.259179        0        
C2        C        0.9062500000000001        0.296297        0.259179        0        
C3        C        0.875        0.314815        0.259179        0        
C4        C        0.9062500000000001        0.259259        0.259179        0        
C1        C        0.875        0.351852        0.259179        0        
C2        C        0.9062500000000001        0.407408        0.259179        0        
C3        C        0.875        0.42592500000000005        0.259179        0        
C4        C        0.9062500000000001        0.37037        0.259179        0        
C1        C        0.875        0.46296300000000007        0.259179        0        
C2        C        0.9062500000000001        0.518519        0.259179        0        
C3        C        0.875        0.537037        0.259179        0        
C4        C        0.9062500000000001        0.481481        0.259179        0        
C1        C        0.875        0.574075        0.259179        0        
C2        C        0.9062500000000001        0.62963        0.259179        0        
C3        C        0.875        0.648148        0.259179        0        
C4        C        0.9062500000000001        0.592592        0.259179        0        
C1        C        0.9375        0.018519        0.259179        0        
C2        C        0.9687500000000001        0.074075        0.259179        0        
C3        C        0.9375        0.092592        0.259179        0        
C4        C        0.9687500000000001        0.037037        0.259179        0        
C1        C        0.9375        0.12963        0.259179        0        
C2        C        0.9687500000000001        0.185185        0.259179        0        
C3        C        0.9375        0.203703        0.259179        0        
C4        C        0.9687500000000001        0.148148        0.259179        0        
C1        C        0.9375        0.24074099999999998        0.259179        0        
C2        C        0.9687500000000001        0.296297        0.259179        0        
C3        C        0.9375        0.314815        0.259179        0        
C4        C        0.9687500000000001        0.259259        0.259179        0        
C1        C        0.9375        0.351852        0.259179        0        
C2        C        0.9687500000000001        0.407408        0.259179        0        
C3        C        0.9375        0.42592500000000005        0.259179        0        
C4        C        0.9687500000000001        0.37037        0.259179        0        
C1        C        0.9375        0.46296300000000007        0.259179        0        
C2        C        0.9687500000000001        0.518519        0.259179        0        
C3        C        0.9375        0.537037        0.259179        0        
C4        C        0.9687500000000001        0.481481        0.259179        0        
C1        C        0.9375        0.574075        0.259179        0        
C2        C        0.9687500000000001        0.62963        0.259179        0        
C3        C        0.9375        0.648148        0.259179        0        
C4        C        0.9687500000000001        0.592592        0.259179        0        
C1        C        0.0        0.685186        0.259179        0        
C1        C        0.0625        0.685186        0.259179        0        
C1        C        0.125        0.685186        0.259179        0        
C1        C        0.1875        0.685186        0.259179        0        
C1        C        0.25        0.685186        0.259179        0        
C1        C        0.3125        0.685186        0.259179        0        
C1        C        0.375        0.685186        0.259179        0        
C1        C        0.4375        0.685186        0.259179        0        
C1        C        0.5        0.685186        0.259179        0        
C1        C        0.5625        0.685186        0.259179        0        
C1        C        0.625        0.685186        0.259179        0        
C1        C        0.6875        0.685186        0.259179        0        
C1        C        0.75        0.685186        0.259179        0        
C1        C        0.8125        0.685186        0.259179        0        
C1        C        0.875        0.685186        0.259179        0        
C1        C        0.9375        0.685186        0.259179        0        
C2        C        0.03125        0.740741        0.259179        0        
C2        C        0.09375        0.740741        0.259179        0        
C2        C        0.15625        0.740741        0.259179        0        
C2        C        0.21875        0.740741        0.259179        0        
C2        C        0.28125        0.740741        0.259179        0        
C2        C        0.34375        0.740741        0.259179        0        
C2        C        0.40625        0.740741        0.259179        0        
C2        C        0.46875        0.740741        0.259179        0        
C2        C        0.53125        0.740741        0.259179        0        
C2        C        0.59375        0.740741        0.259179        0        
C2        C        0.65625        0.740741        0.259179        0        
C2        C        0.71875        0.740741        0.259179        0        
C2        C        0.78125        0.740741        0.259179        0        
C2        C        0.84375        0.740741        0.259179        0        
C2        C        0.9062500000000001        0.740741        0.259179        0        
C2        C        0.9687500000000001        0.740741        0.259179        0        
C3        C        0.0        0.759259        0.259179        0        
C3        C        0.0625        0.759259        0.259179        0        
C3        C        0.125        0.759259        0.259179        0        
C3        C        0.1875        0.759259        0.259179        0        
C3        C        0.25        0.759259        0.259179        0        
C3        C        0.3125        0.759259        0.259179        0        
C3        C        0.375        0.759259        0.259179        0        
C3        C        0.4375        0.759259        0.259179        0        
C3        C        0.5        0.759259        0.259179        0        
C3        C        0.5625        0.759259        0.259179        0        
C3        C        0.625        0.759259        0.259179        0        
C3        C        0.6875        0.759259        0.259179        0        
C3        C        0.75        0.759259        0.259179        0        
C3        C        0.8125        0.759259        0.259179        0        
C3        C        0.875        0.759259        0.259179        0        
C3        C        0.9375        0.759259        0.259179        0        
C4        C        0.03125        0.703703        0.259179        0        
C4        C        0.09375        0.703703        0.259179        0        
C4        C        0.15625        0.703703        0.259179        0        
C4        C        0.21875        0.703703        0.259179        0        
C4        C        0.28125        0.703703        0.259179        0        
C4        C        0.34375        0.703703        0.259179        0        
C4        C        0.40625        0.703703        0.259179        0        
C4        C        0.46875        0.703703        0.259179        0        
C4        C        0.53125        0.703703        0.259179        0        
C4        C        0.59375        0.703703        0.259179        0        
C4        C        0.65625        0.703703        0.259179        0        
C4        C        0.71875        0.703703        0.259179        0        
C4        C        0.78125        0.703703        0.259179        0        
C4        C        0.84375        0.703703        0.259179        0        
C4        C        0.9062500000000001        0.703703        0.259179        0        
C4        C        0.9687500000000001        0.703703        0.259179        0        
C1        C        0.0        0.796297        0.259179        0        
C1        C        0.0625        0.796297        0.259179        0        
C1        C        0.125        0.796297        0.259179        0        
C1        C        0.1875        0.796297        0.259179        0        
C1        C        0.25        0.796297        0.259179        0        
C1        C        0.3125        0.796297        0.259179        0        
C1        C        0.375        0.796297        0.259179        0        
C1        C        0.4375        0.796297        0.259179        0        
C1        C        0.5        0.796297        0.259179        0        
C1        C        0.5625        0.796297        0.259179        0        
C1        C        0.625        0.796297        0.259179        0        
C1        C        0.6875        0.796297        0.259179        0        
C1        C        0.75        0.796297        0.259179        0        
C1        C        0.8125        0.796297        0.259179        0        
C1        C        0.875        0.796297        0.259179        0        
C1        C        0.9375        0.796297        0.259179        0        
C2        C        0.03125        0.851852        0.259179        0        
C2        C        0.09375        0.851852        0.259179        0        
C2        C        0.15625        0.851852        0.259179        0        
C2        C        0.21875        0.851852        0.259179        0        
C2        C        0.28125        0.851852        0.259179        0        
C2        C        0.34375        0.851852        0.259179        0        
C2        C        0.40625        0.851852        0.259179        0        
C2        C        0.46875        0.851852        0.259179        0        
C2        C        0.53125        0.851852        0.259179        0        
C2        C        0.59375        0.851852        0.259179        0        
C2        C        0.65625        0.851852        0.259179        0        
C2        C        0.71875        0.851852        0.259179        0        
C2        C        0.78125        0.851852        0.259179        0        
C2        C        0.84375        0.851852        0.259179        0        
C2        C        0.9062500000000001        0.851852        0.259179        0        
C2        C        0.9687500000000001        0.851852        0.259179        0        
C3        C        0.0        0.87037        0.259179        0        
C3        C        0.0625        0.87037        0.259179        0        
C3        C        0.125        0.87037        0.259179        0        
C3        C        0.1875        0.87037        0.259179        0        
C3        C        0.25        0.87037        0.259179        0        
C3        C        0.3125        0.87037        0.259179        0        
C3        C        0.375        0.87037        0.259179        0        
C3        C        0.4375        0.87037        0.259179        0        
C3        C        0.5        0.87037        0.259179        0        
C3        C        0.5625        0.87037        0.259179        0        
C3        C        0.625        0.87037        0.259179        0        
C3        C        0.6875        0.87037        0.259179        0        
C3        C        0.75        0.87037        0.259179        0        
C3        C        0.8125        0.87037        0.259179        0        
C3        C        0.875        0.87037        0.259179        0        
C3        C        0.9375        0.87037        0.259179        0        
C4        C        0.03125        0.814814        0.259179        0        
C4        C        0.09375        0.814814        0.259179        0        
C4        C        0.15625        0.814814        0.259179        0        
C4        C        0.21875        0.814814        0.259179        0        
C4        C        0.28125        0.814814        0.259179        0        
C4        C        0.34375        0.814814        0.259179        0        
C4        C        0.40625        0.814814        0.259179        0        
C4        C        0.46875        0.814814        0.259179        0        
C4        C        0.53125        0.814814        0.259179        0        
C4        C        0.59375        0.814814        0.259179        0        
C4        C        0.65625        0.814814        0.259179        0        
C4        C        0.71875        0.814814        0.259179        0        
C4        C        0.78125        0.814814        0.259179        0        
C4        C        0.84375        0.814814        0.259179        0        
C4        C        0.9062500000000001        0.814814        0.259179        0        
C4        C        0.9687500000000001        0.814814        0.259179        0        
C1        C        0.0        0.907408        0.259179        0        
C1        C        0.0625        0.907408        0.259179        0        
C1        C        0.125        0.907408        0.259179        0        
C1        C        0.1875        0.907408        0.259179        0        
C1        C        0.25        0.907408        0.259179        0        
C1        C        0.3125        0.907408        0.259179        0        
C1        C        0.375        0.907408        0.259179        0        
C1        C        0.4375        0.907408        0.259179        0        
C1        C        0.5        0.907408        0.259179        0        
C1        C        0.5625        0.907408        0.259179        0        
C1        C        0.625        0.907408        0.259179        0        
C1        C        0.6875        0.907408        0.259179        0        
C1        C        0.75        0.907408        0.259179        0        
C1        C        0.8125        0.907408        0.259179        0        
C1        C        0.875        0.907408        0.259179        0        
C1        C        0.9375        0.907408        0.259179        0        
C2        C        0.03125        0.962963        0.259179        0        
C2        C        0.09375        0.962963        0.259179        0        
C2        C        0.15625        0.962963        0.259179        0        
C2        C        0.21875        0.962963        0.259179        0        
C2        C        0.28125        0.962963        0.259179        0        
C2        C        0.34375        0.962963        0.259179        0        
C2        C        0.40625        0.962963        0.259179        0        
C2        C        0.46875        0.962963        0.259179        0        
C2        C        0.53125        0.962963        0.259179        0        
C2        C        0.59375        0.962963        0.259179        0        
C2        C        0.65625        0.962963        0.259179        0        
C2        C        0.71875        0.962963        0.259179        0        
C2        C        0.78125        0.962963        0.259179        0        
C2        C        0.84375        0.962963        0.259179        0        
C2        C        0.9062500000000001        0.962963        0.259179        0        
C2        C        0.9687500000000001        0.962963        0.259179        0        
C3        C        0.0        0.9814809999999999        0.259179        0        
C3        C        0.0625        0.9814809999999999        0.259179        0        
C3        C        0.125        0.9814809999999999        0.259179        0        
C3        C        0.1875        0.9814809999999999        0.259179        0        
C3        C        0.25        0.9814809999999999        0.259179        0        
C3        C        0.3125        0.9814809999999999        0.259179        0        
C3        C        0.375        0.9814809999999999        0.259179        0        
C3        C        0.4375        0.9814809999999999        0.259179        0        
C3        C        0.5        0.9814809999999999        0.259179        0        
C3        C        0.5625        0.9814809999999999        0.259179        0        
C3        C        0.625        0.9814809999999999        0.259179        0        
C3        C        0.6875        0.9814809999999999        0.259179        0        
C3        C        0.75        0.9814809999999999        0.259179        0        
C3        C        0.8125        0.9814809999999999        0.259179        0        
C3        C        0.875        0.9814809999999999        0.259179        0        
C3        C        0.9375        0.9814809999999999        0.259179        0        
C4        C        0.03125        0.925925        0.259179        0        
C4        C        0.09375        0.925925        0.259179        0        
C4        C        0.15625        0.925925        0.259179        0        
C4        C        0.21875        0.925925        0.259179        0        
C4        C        0.28125        0.925925        0.259179        0        
C4        C        0.34375        0.925925        0.259179        0        
C4        C        0.40625        0.925925        0.259179        0        
C4        C        0.46875        0.925925        0.259179        0        
C4        C        0.53125        0.925925        0.259179        0        
C4        C        0.59375        0.925925        0.259179        0        
C4        C        0.65625        0.925925        0.259179        0        
C4        C        0.71875        0.925925        0.259179        0        
C4        C        0.78125        0.925925        0.259179        0        
C4        C        0.84375        0.925925        0.259179        0        
C4        C        0.9062500000000001        0.925925        0.259179        0        
C4        C        0.9687500000000001        0.925925        0.259179        0        
C1        C        0.0        0.018519        0.331534        0        
C2        C        0.03125        0.074075        0.331534        0        
C3        C        0.0        0.092592        0.331534        0        
C4        C        0.03125        0.037037        0.331534        0        
C1        C        0.0        0.12963        0.331534        0        
C2        C        0.03125        0.185185        0.331534        0        
C3        C        0.0        0.203703        0.331534        0        
C4        C        0.03125        0.148148        0.331534        0        
C1        C        0.0        0.24074099999999998        0.331534        0        
C2        C        0.03125        0.296297        0.331534        0        
C3        C        0.0        0.314815        0.331534        0        
C4        C        0.03125        0.259259        0.331534        0        
C1        C        0.0        0.351852        0.331534        0        
C2        C        0.03125        0.407408        0.331534        0        
C3        C        0.0        0.42592500000000005        0.331534        0        
C4        C        0.03125        0.37037        0.331534        0        
C1        C        0.0        0.46296300000000007        0.331534        0        
C2        C        0.03125        0.518519        0.331534        0        
C3        C        0.0        0.537037        0.331534        0        
C4        C        0.03125        0.481481        0.331534        0        
C1        C        0.0        0.574075        0.331534        0        
C2        C        0.03125        0.62963        0.331534        0        
C3        C        0.0        0.648148        0.331534        0        
C4        C        0.03125        0.592592        0.331534        0        
C1        C        0.0625        0.018519        0.331534        0        
C2        C        0.09375        0.074075        0.331534        0        
C3        C        0.0625        0.092592        0.331534        0        
C4        C        0.09375        0.037037        0.331534        0        
C1        C        0.0625        0.12963        0.331534        0        
C2        C        0.09375        0.185185        0.331534        0        
C3        C        0.0625        0.203703        0.331534        0        
C4        C        0.09375        0.148148        0.331534        0        
C1        C        0.0625        0.24074099999999998        0.331534        0        
C2        C        0.09375        0.296297        0.331534        0        
C3        C        0.0625        0.314815        0.331534        0        
C4        C        0.09375        0.259259        0.331534        0        
C1        C        0.0625        0.351852        0.331534        0        
C2        C        0.09375        0.407408        0.331534        0        
C3        C        0.0625        0.42592500000000005        0.331534        0        
C4        C        0.09375        0.37037        0.331534        0        
C1        C        0.0625        0.46296300000000007        0.331534        0        
C2        C        0.09375        0.518519        0.331534        0        
C3        C        0.0625        0.537037        0.331534        0        
C4        C        0.09375        0.481481        0.331534        0        
C1        C        0.0625        0.574075        0.331534        0        
C2        C        0.09375        0.62963        0.331534        0        
C3        C        0.0625        0.648148        0.331534        0        
C4        C        0.09375        0.592592        0.331534        0        
C1        C        0.125        0.018519        0.331534        0        
C2        C        0.15625        0.074075        0.331534        0        
C3        C        0.125        0.092592        0.331534        0        
C4        C        0.15625        0.037037        0.331534        0        
C1        C        0.125        0.12963        0.331534        0        
C2        C        0.15625        0.185185        0.331534        0        
C3        C        0.125        0.203703        0.331534        0        
C4        C        0.15625        0.148148        0.331534        0        
C1        C        0.125        0.24074099999999998        0.331534        0        
C2        C        0.15625        0.296297        0.331534        0        
C3        C        0.125        0.314815        0.331534        0        
C4        C        0.15625        0.259259        0.331534        0        
C1        C        0.125        0.351852        0.331534        0        
C2        C        0.15625        0.407408        0.331534        0        
C3        C        0.125        0.42592500000000005        0.331534        0        
C4        C        0.15625        0.37037        0.331534        0        
C1        C        0.125        0.46296300000000007        0.331534        0        
C2        C        0.15625        0.518519        0.331534        0        
C3        C        0.125        0.537037        0.331534        0        
C4        C        0.15625        0.481481        0.331534        0        
C1        C        0.125        0.574075        0.331534        0        
C2        C        0.15625        0.62963        0.331534        0        
C3        C        0.125        0.648148        0.331534        0        
C4        C        0.15625        0.592592        0.331534        0        
C1        C        0.1875        0.018519        0.331534        0        
C2        C        0.21875        0.074075        0.331534        0        
C3        C        0.1875        0.092592        0.331534        0        
C4        C        0.21875        0.037037        0.331534        0        
C1        C        0.1875        0.12963        0.331534        0        
C2        C        0.21875        0.185185        0.331534        0        
C3        C        0.1875        0.203703        0.331534        0        
C4        C        0.21875        0.148148        0.331534        0        
C1        C        0.1875        0.24074099999999998        0.331534        0        
C2        C        0.21875        0.296297        0.331534        0        
C3        C        0.1875        0.314815        0.331534        0        
C4        C        0.21875        0.259259        0.331534        0        
C1        C        0.1875        0.351852        0.331534        0        
C2        C        0.21875        0.407408        0.331534        0        
C3        C        0.1875        0.42592500000000005        0.331534        0        
C4        C        0.21875        0.37037        0.331534        0        
C1        C        0.1875        0.46296300000000007        0.331534        0        
C2        C        0.21875        0.518519        0.331534        0        
C3        C        0.1875        0.537037        0.331534        0        
C4        C        0.21875        0.481481        0.331534        0        
C1        C        0.1875        0.574075        0.331534        0        
C2        C        0.21875        0.62963        0.331534        0        
C3        C        0.1875        0.648148        0.331534        0        
C4        C        0.21875        0.592592        0.331534        0        
C1        C        0.25        0.018519        0.331534        0        
C2        C        0.28125        0.074075        0.331534        0        
C3        C        0.25        0.092592        0.331534        0        
C4        C        0.28125        0.037037        0.331534        0        
C1        C        0.25        0.12963        0.331534        0        
C2        C        0.28125        0.185185        0.331534        0        
C3        C        0.25        0.203703        0.331534        0        
C4        C        0.28125        0.148148        0.331534        0        
C1        C        0.25        0.24074099999999998        0.331534        0        
C2        C        0.28125        0.296297        0.331534        0        
C3        C        0.25        0.314815        0.331534        0        
C4        C        0.28125        0.259259        0.331534        0        
C1        C        0.25        0.351852        0.331534        0        
C2        C        0.28125        0.407408        0.331534        0        
C3        C        0.25        0.42592500000000005        0.331534        0        
C4        C        0.28125        0.37037        0.331534        0        
C1        C        0.25        0.46296300000000007        0.331534        0        
C2        C        0.28125        0.518519        0.331534        0        
C3        C        0.25        0.537037        0.331534        0        
C4        C        0.28125        0.481481        0.331534        0        
C1        C        0.25        0.574075        0.331534        0        
C2        C        0.28125        0.62963        0.331534        0        
C3        C        0.25        0.648148        0.331534        0        
C4        C        0.28125        0.592592        0.331534        0        
C1        C        0.3125        0.018519        0.331534        0        
C2        C        0.34375        0.074075        0.331534        0        
C3        C        0.3125        0.092592        0.331534        0        
C4        C        0.34375        0.037037        0.331534        0        
C1        C        0.3125        0.12963        0.331534        0        
C2        C        0.34375        0.185185        0.331534        0        
C3        C        0.3125        0.203703        0.331534        0        
C4        C        0.34375        0.148148        0.331534        0        
C1        C        0.3125        0.24074099999999998        0.331534        0        
C2        C        0.34375        0.296297        0.331534        0        
C3        C        0.3125        0.314815        0.331534        0        
C4        C        0.34375        0.259259        0.331534        0        
C1        C        0.3125        0.351852        0.331534        0        
C2        C        0.34375        0.407408        0.331534        0        
C3        C        0.3125        0.42592500000000005        0.331534        0        
C4        C        0.34375        0.37037        0.331534        0        
C1        C        0.3125        0.46296300000000007        0.331534        0        
C2        C        0.34375        0.518519        0.331534        0        
C3        C        0.3125        0.537037        0.331534        0        
C4        C        0.34375        0.481481        0.331534        0        
C1        C        0.3125        0.574075        0.331534        0        
C2        C        0.34375        0.62963        0.331534        0        
C3        C        0.3125        0.648148        0.331534        0        
C4        C        0.34375        0.592592        0.331534        0        
C1        C        0.375        0.018519        0.331534        0        
C2        C        0.40625        0.074075        0.331534        0        
C3        C        0.375        0.092592        0.331534        0        
C4        C        0.40625        0.037037        0.331534        0        
C1        C        0.375        0.12963        0.331534        0        
C2        C        0.40625        0.185185        0.331534        0        
C3        C        0.375        0.203703        0.331534        0        
C4        C        0.40625        0.148148        0.331534        0        
C1        C        0.375        0.24074099999999998        0.331534        0        
C2        C        0.40625        0.296297        0.331534        0        
C3        C        0.375        0.314815        0.331534        0        
C4        C        0.40625        0.259259        0.331534        0        
C1        C        0.375        0.351852        0.331534        0        
C2        C        0.40625        0.407408        0.331534        0        
C3        C        0.375        0.42592500000000005        0.331534        0        
C4        C        0.40625        0.37037        0.331534        0        
C1        C        0.375        0.46296300000000007        0.331534        0        
C2        C        0.40625        0.518519        0.331534        0        
C3        C        0.375        0.537037        0.331534        0        
C4        C        0.40625        0.481481        0.331534        0        
C1        C        0.375        0.574075        0.331534        0        
C2        C        0.40625        0.62963        0.331534        0        
C3        C        0.375        0.648148        0.331534        0        
C4        C        0.40625        0.592592        0.331534        0        
C1        C        0.4375        0.018519        0.331534        0        
C2        C        0.46875        0.074075        0.331534        0        
C3        C        0.4375        0.092592        0.331534        0        
C4        C        0.46875        0.037037        0.331534        0        
C1        C        0.4375        0.12963        0.331534        0        
C2        C        0.46875        0.185185        0.331534        0        
C3        C        0.4375        0.203703        0.331534        0        
C4        C        0.46875        0.148148        0.331534        0        
C1        C        0.4375        0.24074099999999998        0.331534        0        
C2        C        0.46875        0.296297        0.331534        0        
C3        C        0.4375        0.314815        0.331534        0        
C4        C        0.46875        0.259259        0.331534        0        
C1        C        0.4375        0.351852        0.331534        0        
C2        C        0.46875        0.407408        0.331534        0        
C3        C        0.4375        0.42592500000000005        0.331534        0        
C4        C        0.46875        0.37037        0.331534        0        
C1        C        0.4375        0.46296300000000007        0.331534        0        
C2        C        0.46875        0.518519        0.331534        0        
C3        C        0.4375        0.537037        0.331534        0        
C4        C        0.46875        0.481481        0.331534        0        
C1        C        0.4375        0.574075        0.331534        0        
C2        C        0.46875        0.62963        0.331534        0        
C3        C        0.4375        0.648148        0.331534        0        
C4        C        0.46875        0.592592        0.331534        0        
C1        C        0.5        0.018519        0.331534        0        
C2        C        0.53125        0.074075        0.331534        0        
C3        C        0.5        0.092592        0.331534        0        
C4        C        0.53125        0.037037        0.331534        0        
C1        C        0.5        0.12963        0.331534        0        
C2        C        0.53125        0.185185        0.331534        0        
C3        C        0.5        0.203703        0.331534        0        
C4        C        0.53125        0.148148        0.331534        0        
C1        C        0.5        0.24074099999999998        0.331534        0        
C2        C        0.53125        0.296297        0.331534        0        
C3        C        0.5        0.314815        0.331534        0        
C4        C        0.53125        0.259259        0.331534        0        
C1        C        0.5        0.351852        0.331534        0        
C2        C        0.53125        0.407408        0.331534        0        
C3        C        0.5        0.42592500000000005        0.331534        0        
C4        C        0.53125        0.37037        0.331534        0        
C1        C        0.5        0.46296300000000007        0.331534        0        
C2        C        0.53125        0.518519        0.331534        0        
C3        C        0.5        0.537037        0.331534        0        
C4        C        0.53125        0.481481        0.331534        0        
C1        C        0.5        0.574075        0.331534        0        
C2        C        0.53125        0.62963        0.331534        0        
C3        C        0.5        0.648148        0.331534        0        
C4        C        0.53125        0.592592        0.331534        0        
C1        C        0.5625        0.018519        0.331534        0        
C2        C        0.59375        0.074075        0.331534        0        
C3        C        0.5625        0.092592        0.331534        0        
C4        C        0.59375        0.037037        0.331534        0        
C1        C        0.5625        0.12963        0.331534        0        
C2        C        0.59375        0.185185        0.331534        0        
C3        C        0.5625        0.203703        0.331534        0        
C4        C        0.59375        0.148148        0.331534        0        
C1        C        0.5625        0.24074099999999998        0.331534        0        
C2        C        0.59375        0.296297        0.331534        0        
C3        C        0.5625        0.314815        0.331534        0        
C4        C        0.59375        0.259259        0.331534        0        
C1        C        0.5625        0.351852        0.331534        0        
C2        C        0.59375        0.407408        0.331534        0        
C3        C        0.5625        0.42592500000000005        0.331534        0        
C4        C        0.59375        0.37037        0.331534        0        
C1        C        0.5625        0.46296300000000007        0.331534        0        
C2        C        0.59375        0.518519        0.331534        0        
C3        C        0.5625        0.537037        0.331534        0        
C4        C        0.59375        0.481481        0.331534        0        
C1        C        0.5625        0.574075        0.331534        0        
C2        C        0.59375        0.62963        0.331534        0        
C3        C        0.5625        0.648148        0.331534        0        
C4        C        0.59375        0.592592        0.331534        0        
C1        C        0.625        0.018519        0.331534        0        
C2        C        0.65625        0.074075        0.331534        0        
C3        C        0.625        0.092592        0.331534        0        
C4        C        0.65625        0.037037        0.331534        0        
C1        C        0.625        0.12963        0.331534        0        
C2        C        0.65625        0.185185        0.331534        0        
C3        C        0.625        0.203703        0.331534        0        
C4        C        0.65625        0.148148        0.331534        0        
C1        C        0.625        0.24074099999999998        0.331534        0        
C2        C        0.65625        0.296297        0.331534        0        
C3        C        0.625        0.314815        0.331534        0        
C4        C        0.65625        0.259259        0.331534        0        
C1        C        0.625        0.351852        0.331534        0        
C2        C        0.65625        0.407408        0.331534        0        
C3        C        0.625        0.42592500000000005        0.331534        0        
C4        C        0.65625        0.37037        0.331534        0        
C1        C        0.625        0.46296300000000007        0.331534        0        
C2        C        0.65625        0.518519        0.331534        0        
C3        C        0.625        0.537037        0.331534        0        
C4        C        0.65625        0.481481        0.331534        0        
C1        C        0.625        0.574075        0.331534        0        
C2        C        0.65625        0.62963        0.331534        0        
C3        C        0.625        0.648148        0.331534        0        
C4        C        0.65625        0.592592        0.331534        0        
C1        C        0.6875        0.018519        0.331534        0        
C2        C        0.71875        0.074075        0.331534        0        
C3        C        0.6875        0.092592        0.331534        0        
C4        C        0.71875        0.037037        0.331534        0        
C1        C        0.6875        0.12963        0.331534        0        
C2        C        0.71875        0.185185        0.331534        0        
C3        C        0.6875        0.203703        0.331534        0        
C4        C        0.71875        0.148148        0.331534        0        
C1        C        0.6875        0.24074099999999998        0.331534        0        
C2        C        0.71875        0.296297        0.331534        0        
C3        C        0.6875        0.314815        0.331534        0        
C4        C        0.71875        0.259259        0.331534        0        
C1        C        0.6875        0.351852        0.331534        0        
C2        C        0.71875        0.407408        0.331534        0        
C3        C        0.6875        0.42592500000000005        0.331534        0        
C4        C        0.71875        0.37037        0.331534        0        
C1        C        0.6875        0.46296300000000007        0.331534        0        
C2        C        0.71875        0.518519        0.331534        0        
C3        C        0.6875        0.537037        0.331534        0        
C4        C        0.71875        0.481481        0.331534        0        
C1        C        0.6875        0.574075        0.331534        0        
C2        C        0.71875        0.62963        0.331534        0        
C3        C        0.6875        0.648148        0.331534        0        
C4        C        0.71875        0.592592        0.331534        0        
C1        C        0.75        0.018519        0.331534        0        
C2        C        0.78125        0.074075        0.331534        0        
C3        C        0.75        0.092592        0.331534        0        
C4        C        0.78125        0.037037        0.331534        0        
C1        C        0.75        0.12963        0.331534        0        
C2        C        0.78125        0.185185        0.331534        0        
C3        C        0.75        0.203703        0.331534        0        
C4        C        0.78125        0.148148        0.331534        0        
C1        C        0.75        0.24074099999999998        0.331534        0        
C2        C        0.78125        0.296297        0.331534        0        
C3        C        0.75        0.314815        0.331534        0        
C4        C        0.78125        0.259259        0.331534        0        
C1        C        0.75        0.351852        0.331534        0        
C2        C        0.78125        0.407408        0.331534        0        
C3        C        0.75        0.42592500000000005        0.331534        0        
C4        C        0.78125        0.37037        0.331534        0        
C1        C        0.75        0.46296300000000007        0.331534        0        
C2        C        0.78125        0.518519        0.331534        0        
C3        C        0.75        0.537037        0.331534        0        
C4        C        0.78125        0.481481        0.331534        0        
C1        C        0.75        0.574075        0.331534        0        
C2        C        0.78125        0.62963        0.331534        0        
C3        C        0.75        0.648148        0.331534        0        
C4        C        0.78125        0.592592        0.331534        0        
C1        C        0.8125        0.018519        0.331534        0        
C2        C        0.84375        0.074075        0.331534        0        
C3        C        0.8125        0.092592        0.331534        0        
C4        C        0.84375        0.037037        0.331534        0        
C1        C        0.8125        0.12963        0.331534        0        
C2        C        0.84375        0.185185        0.331534        0        
C3        C        0.8125        0.203703        0.331534        0        
C4        C        0.84375        0.148148        0.331534        0        
C1        C        0.8125        0.24074099999999998        0.331534        0        
C2        C        0.84375        0.296297        0.331534        0        
C3        C        0.8125        0.314815        0.331534        0        
C4        C        0.84375        0.259259        0.331534        0        
C1        C        0.8125        0.351852        0.331534        0        
C2        C        0.84375        0.407408        0.331534        0        
C3        C        0.8125        0.42592500000000005        0.331534        0        
C4        C        0.84375        0.37037        0.331534        0        
C1        C        0.8125        0.46296300000000007        0.331534        0        
C2        C        0.84375        0.518519        0.331534        0        
C3        C        0.8125        0.537037        0.331534        0        
C4        C        0.84375        0.481481        0.331534        0        
C1        C        0.8125        0.574075        0.331534        0        
C2        C        0.84375        0.62963        0.331534        0        
C3        C        0.8125        0.648148        0.331534        0        
C4        C        0.84375        0.592592        0.331534        0        
C1        C        0.875        0.018519        0.331534        0        
C2        C        0.9062500000000001        0.074075        0.331534        0        
C3        C        0.875        0.092592        0.331534        0        
C4        C        0.9062500000000001        0.037037        0.331534        0        
C1        C        0.875        0.12963        0.331534        0        
C2        C        0.9062500000000001        0.185185        0.331534        0        
C3        C        0.875        0.203703        0.331534        0        
C4        C        0.9062500000000001        0.148148        0.331534        0        
C1        C        0.875        0.24074099999999998        0.331534        0        
C2        C        0.9062500000000001        0.296297        0.331534        0        
C3        C        0.875        0.314815        0.331534        0        
C4        C        0.9062500000000001        0.259259        0.331534        0        
C1        C        0.875        0.351852        0.331534        0        
C2        C        0.9062500000000001        0.407408        0.331534        0        
C3        C        0.875        0.42592500000000005        0.331534        0        
C4        C        0.9062500000000001        0.37037        0.331534        0        
C1        C        0.875        0.46296300000000007        0.331534        0        
C2        C        0.9062500000000001        0.518519        0.331534        0        
C3        C        0.875        0.537037        0.331534        0        
C4        C        0.9062500000000001        0.481481        0.331534        0        
C1        C        0.875        0.574075        0.331534        0        
C2        C        0.9062500000000001        0.62963        0.331534        0        
C3        C        0.875        0.648148        0.331534        0        
C4        C        0.9062500000000001        0.592592        0.331534        0        
C1        C        0.9375        0.018519        0.331534        0        
C2        C        0.9687500000000001        0.074075        0.331534        0        
C3        C        0.9375        0.092592        0.331534        0        
C4        C        0.9687500000000001        0.037037        0.331534        0        
C1        C        0.9375        0.12963        0.331534        0        
C2        C        0.9687500000000001        0.185185        0.331534        0        
C3        C        0.9375        0.203703        0.331534        0        
C4        C        0.9687500000000001        0.148148        0.331534        0        
C1        C        0.9375        0.24074099999999998        0.331534        0        
C2        C        0.9687500000000001        0.296297        0.331534        0        
C3        C        0.9375        0.314815        0.331534        0        
C4        C        0.9687500000000001        0.259259        0.331534        0        
C1        C        0.9375        0.351852        0.331534        0        
C2        C        0.9687500000000001        0.407408        0.331534        0        
C3        C        0.9375        0.42592500000000005        0.331534        0        
C4        C        0.9687500000000001        0.37037        0.331534        0        
C1        C        0.9375        0.46296300000000007        0.331534        0        
C2        C        0.9687500000000001        0.518519        0.331534        0        
C3        C        0.9375        0.537037        0.331534        0        
C4        C        0.9687500000000001        0.481481        0.331534        0        
C1        C        0.9375        0.574075        0.331534        0        
C2        C        0.9687500000000001        0.62963        0.331534        0        
C3        C        0.9375        0.648148        0.331534        0        
C4        C        0.9687500000000001        0.592592        0.331534        0        
C1        C        0.0        0.685186        0.331534        0        
C1        C        0.0625        0.685186        0.331534        0        
C1        C        0.125        0.685186        0.331534        0        
C1        C        0.1875        0.685186        0.331534        0        
C1        C        0.25        0.685186        0.331534        0        
C1        C        0.3125        0.685186        0.331534        0        
C1        C        0.375        0.685186        0.331534        0        
C1        C        0.4375        0.685186        0.331534        0        
C1        C        0.5        0.685186        0.331534        0        
C1        C        0.5625        0.685186        0.331534        0        
C1        C        0.625        0.685186        0.331534        0        
C1        C        0.6875        0.685186        0.331534        0        
C1        C        0.75        0.685186        0.331534        0        
C1        C        0.8125        0.685186        0.331534        0        
C1        C        0.875        0.685186        0.331534        0        
C1        C        0.9375        0.685186        0.331534        0        
C2        C        0.03125        0.740741        0.331534        0        
C2        C        0.09375        0.740741        0.331534        0        
C2        C        0.15625        0.740741        0.331534        0        
C2        C        0.21875        0.740741        0.331534        0        
C2        C        0.28125        0.740741        0.331534        0        
C2        C        0.34375        0.740741        0.331534        0        
C2        C        0.40625        0.740741        0.331534        0        
C2        C        0.46875        0.740741        0.331534        0        
C2        C        0.53125        0.740741        0.331534        0        
C2        C        0.59375        0.740741        0.331534        0        
C2        C        0.65625        0.740741        0.331534        0        
C2        C        0.71875        0.740741        0.331534        0        
C2        C        0.78125        0.740741        0.331534        0        
C2        C        0.84375        0.740741        0.331534        0        
C2        C        0.9062500000000001        0.740741        0.331534        0        
C2        C        0.9687500000000001        0.740741        0.331534        0        
C3        C        0.0        0.759259        0.331534        0        
C3        C        0.0625        0.759259        0.331534        0        
C3        C        0.125        0.759259        0.331534        0        
C3        C        0.1875        0.759259        0.331534        0        
C3        C        0.25        0.759259        0.331534        0        
C3        C        0.3125        0.759259        0.331534        0        
C3        C        0.375        0.759259        0.331534        0        
C3        C        0.4375        0.759259        0.331534        0        
C3        C        0.5        0.759259        0.331534        0        
C3        C        0.5625        0.759259        0.331534        0        
C3        C        0.625        0.759259        0.331534        0        
C3        C        0.6875        0.759259        0.331534        0        
C3        C        0.75        0.759259        0.331534        0        
C3        C        0.8125        0.759259        0.331534        0        
C3        C        0.875        0.759259        0.331534        0        
C3        C        0.9375        0.759259        0.331534        0        
C4        C        0.03125        0.703703        0.331534        0        
C4        C        0.09375        0.703703        0.331534        0        
C4        C        0.15625        0.703703        0.331534        0        
C4        C        0.21875        0.703703        0.331534        0        
C4        C        0.28125        0.703703        0.331534        0        
C4        C        0.34375        0.703703        0.331534        0        
C4        C        0.40625        0.703703        0.331534        0        
C4        C        0.46875        0.703703        0.331534        0        
C4        C        0.53125        0.703703        0.331534        0        
C4        C        0.59375        0.703703        0.331534        0        
C4        C        0.65625        0.703703        0.331534        0        
C4        C        0.71875        0.703703        0.331534        0        
C4        C        0.78125        0.703703        0.331534        0        
C4        C        0.84375        0.703703        0.331534        0        
C4        C        0.9062500000000001        0.703703        0.331534        0        
C4        C        0.9687500000000001        0.703703        0.331534        0        
C1        C        0.0        0.796297        0.331534        0        
C1        C        0.0625        0.796297        0.331534        0        
C1        C        0.125        0.796297        0.331534        0        
C1        C        0.1875        0.796297        0.331534        0        
C1        C        0.25        0.796297        0.331534        0        
C1        C        0.3125        0.796297        0.331534        0        
C1        C        0.375        0.796297        0.331534        0        
C1        C        0.4375        0.796297        0.331534        0        
C1        C        0.5        0.796297        0.331534        0        
C1        C        0.5625        0.796297        0.331534        0        
C1        C        0.625        0.796297        0.331534        0        
C1        C        0.6875        0.796297        0.331534        0        
C1        C        0.75        0.796297        0.331534        0        
C1        C        0.8125        0.796297        0.331534        0        
C1        C        0.875        0.796297        0.331534        0        
C1        C        0.9375        0.796297        0.331534        0        
C2        C        0.03125        0.851852        0.331534        0        
C2        C        0.09375        0.851852        0.331534        0        
C2        C        0.15625        0.851852        0.331534        0        
C2        C        0.21875        0.851852        0.331534        0        
C2        C        0.28125        0.851852        0.331534        0        
C2        C        0.34375        0.851852        0.331534        0        
C2        C        0.40625        0.851852        0.331534        0        
C2        C        0.46875        0.851852        0.331534        0        
C2        C        0.53125        0.851852        0.331534        0        
C2        C        0.59375        0.851852        0.331534        0        
C2        C        0.65625        0.851852        0.331534        0        
C2        C        0.71875        0.851852        0.331534        0        
C2        C        0.78125        0.851852        0.331534        0        
C2        C        0.84375        0.851852        0.331534        0        
C2        C        0.9062500000000001        0.851852        0.331534        0        
C2        C        0.9687500000000001        0.851852        0.331534        0        
C3        C        0.0        0.87037        0.331534        0        
C3        C        0.0625        0.87037        0.331534        0        
C3        C        0.125        0.87037        0.331534        0        
C3        C        0.1875        0.87037        0.331534        0        
C3        C        0.25        0.87037        0.331534        0        
C3        C        0.3125        0.87037        0.331534        0        
C3        C        0.375        0.87037        0.331534        0        
C3        C        0.4375        0.87037        0.331534        0        
C3        C        0.5        0.87037        0.331534        0        
C3        C        0.5625        0.87037        0.331534        0        
C3        C        0.625        0.87037        0.331534        0        
C3        C        0.6875        0.87037        0.331534        0        
C3        C        0.75        0.87037        0.331534        0        
C3        C        0.8125        0.87037        0.331534        0        
C3        C        0.875        0.87037        0.331534        0        
C3        C        0.9375        0.87037        0.331534        0        
C4        C        0.03125        0.814814        0.331534        0        
C4        C        0.09375        0.814814        0.331534        0        
C4        C        0.15625        0.814814        0.331534        0        
C4        C        0.21875        0.814814        0.331534        0        
C4        C        0.28125        0.814814        0.331534        0        
C4        C        0.34375        0.814814        0.331534        0        
C4        C        0.40625        0.814814        0.331534        0        
C4        C        0.46875        0.814814        0.331534        0        
C4        C        0.53125        0.814814        0.331534        0        
C4        C        0.59375        0.814814        0.331534        0        
C4        C        0.65625        0.814814        0.331534        0        
C4        C        0.71875        0.814814        0.331534        0        
C4        C        0.78125        0.814814        0.331534        0        
C4        C        0.84375        0.814814        0.331534        0        
C4        C        0.9062500000000001        0.814814        0.331534        0        
C4        C        0.9687500000000001        0.814814        0.331534        0        
C1        C        0.0        0.907408        0.331534        0        
C1        C        0.0625        0.907408        0.331534        0        
C1        C        0.125        0.907408        0.331534        0        
C1        C        0.1875        0.907408        0.331534        0        
C1        C        0.25        0.907408        0.331534        0        
C1        C        0.3125        0.907408        0.331534        0        
C1        C        0.375        0.907408        0.331534        0        
C1        C        0.4375        0.907408        0.331534        0        
C1        C        0.5        0.907408        0.331534        0        
C1        C        0.5625        0.907408        0.331534        0        
C1        C        0.625        0.907408        0.331534        0        
C1        C        0.6875        0.907408        0.331534        0        
C1        C        0.75        0.907408        0.331534        0        
C1        C        0.8125        0.907408        0.331534        0        
C1        C        0.875        0.907408        0.331534        0        
C1        C        0.9375        0.907408        0.331534        0        
C2        C        0.03125        0.962963        0.331534        0        
C2        C        0.09375        0.962963        0.331534        0        
C2        C        0.15625        0.962963        0.331534        0        
C2        C        0.21875        0.962963        0.331534        0        
C2        C        0.28125        0.962963        0.331534        0        
C2        C        0.34375        0.962963        0.331534        0        
C2        C        0.40625        0.962963        0.331534        0        
C2        C        0.46875        0.962963        0.331534        0        
C2        C        0.53125        0.962963        0.331534        0        
C2        C        0.59375        0.962963        0.331534        0        
C2        C        0.65625        0.962963        0.331534        0        
C2        C        0.71875        0.962963        0.331534        0        
C2        C        0.78125        0.962963        0.331534        0        
C2        C        0.84375        0.962963        0.331534        0        
C2        C        0.9062500000000001        0.962963        0.331534        0        
C2        C        0.9687500000000001        0.962963        0.331534        0        
C3        C        0.0        0.9814809999999999        0.331534        0        
C3        C        0.0625        0.9814809999999999        0.331534        0        
C3        C        0.125        0.9814809999999999        0.331534        0        
C3        C        0.1875        0.9814809999999999        0.331534        0        
C3        C        0.25        0.9814809999999999        0.331534        0        
C3        C        0.3125        0.9814809999999999        0.331534        0        
C3        C        0.375        0.9814809999999999        0.331534        0        
C3        C        0.4375        0.9814809999999999        0.331534        0        
C3        C        0.5        0.9814809999999999        0.331534        0        
C3        C        0.5625        0.9814809999999999        0.331534        0        
C3        C        0.625        0.9814809999999999        0.331534        0        
C3        C        0.6875        0.9814809999999999        0.331534        0        
C3        C        0.75        0.9814809999999999        0.331534        0        
C3        C        0.8125        0.9814809999999999        0.331534        0        
C3        C        0.875        0.9814809999999999        0.331534        0        
C3        C        0.9375        0.9814809999999999        0.331534        0        
C4        C        0.03125        0.925925        0.331534        0        
C4        C        0.09375        0.925925        0.331534        0        
C4        C        0.15625        0.925925        0.331534        0        
C4        C        0.21875        0.925925        0.331534        0        
C4        C        0.28125        0.925925        0.331534        0        
C4        C        0.34375        0.925925        0.331534        0        
C4        C        0.40625        0.925925        0.331534        0        
C4        C        0.46875        0.925925        0.331534        0        
C4        C        0.53125        0.925925        0.331534        0        
C4        C        0.59375        0.925925        0.331534        0        
C4        C        0.65625        0.925925        0.331534        0        
C4        C        0.71875        0.925925        0.331534        0        
C4        C        0.78125        0.925925        0.331534        0        
C4        C        0.84375        0.925925        0.331534        0        
C4        C        0.9062500000000001        0.925925        0.331534        0        
C4        C        0.9687500000000001        0.925925        0.331534        0        
C_FG        C        0.0        0.018519        0.403888        0.08        
C2        C        0.03125        0.074075        0.403888        0        
C3        C        0.0        0.092592        0.403888        0        
C4        C        0.03125        0.037037        0.403888        0        
C1        C        0.0        0.12963        0.403888        0        
C2        C        0.03125        0.185185        0.403888        0        
C_FG        C        0.0        0.203703        0.403888        0.08        
C4        C        0.03125        0.148148        0.403888        0        
C1        C        0.0        0.24074099999999998        0.403888        0        
C2        C        0.03125        0.296297        0.403888        0        
C3        C        0.0        0.314815        0.403888        0        
C4        C        0.03125        0.259259        0.403888        0        
C_FG        C        0.0        0.351852        0.403888        0.08        
C2        C        0.03125        0.407408        0.403888        0        
C3        C        0.0        0.42592500000000005        0.403888        0        
C4        C        0.03125        0.37037        0.403888        0        
C1        C        0.0        0.46296300000000007        0.403888        0        
C2        C        0.03125        0.518519        0.403888        0        
C_FG        C        0.0        0.537037        0.403888        0.08        
C4        C        0.03125        0.481481        0.403888        0        
C1        C        0.0        0.574075        0.403888        0        
C2        C        0.03125        0.62963        0.403888        0        
C3        C        0.0        0.648148        0.403888        0        
C4        C        0.03125        0.592592        0.403888        0        
C1        C        0.0625        0.018519        0.403888        0        
C2        C        0.09375        0.074075        0.403888        0        
C3        C        0.0625        0.092592        0.403888        0        
C4        C        0.09375        0.037037        0.403888        0        
C1        C        0.0625        0.12963        0.403888        0        
C2        C        0.09375        0.185185        0.403888        0        
C3        C        0.0625        0.203703        0.403888        0        
C4        C        0.09375        0.148148        0.403888        0        
C1        C        0.0625        0.24074099999999998        0.403888        0        
C2        C        0.09375        0.296297        0.403888        0        
C3        C        0.0625        0.314815        0.403888        0        
C4        C        0.09375        0.259259        0.403888        0        
C1        C        0.0625        0.351852        0.403888        0        
C2        C        0.09375        0.407408        0.403888        0        
C3        C        0.0625        0.42592500000000005        0.403888        0        
C4        C        0.09375        0.37037        0.403888        0        
C1        C        0.0625        0.46296300000000007        0.403888        0        
C2        C        0.09375        0.518519        0.403888        0        
C3        C        0.0625        0.537037        0.403888        0        
C4        C        0.09375        0.481481        0.403888        0        
C1        C        0.0625        0.574075        0.403888        0        
C2        C        0.09375        0.62963        0.403888        0        
C3        C        0.0625        0.648148        0.403888        0        
C4        C        0.09375        0.592592        0.403888        0        
C1        C        0.125        0.018519        0.403888        0        
C2        C        0.15625        0.074075        0.403888        0        
C3        C        0.125        0.092592        0.403888        0        
C4        C        0.15625        0.037037        0.403888        0        
C1        C        0.125        0.12963        0.403888        0        
C2        C        0.15625        0.185185        0.403888        0        
C3        C        0.125        0.203703        0.403888        0        
C4        C        0.15625        0.148148        0.403888        0        
C1        C        0.125        0.24074099999999998        0.403888        0        
C2        C        0.15625        0.296297        0.403888        0        
C3        C        0.125        0.314815        0.403888        0        
C4        C        0.15625        0.259259        0.403888        0        
C1        C        0.125        0.351852        0.403888        0        
C2        C        0.15625        0.407408        0.403888        0        
C3        C        0.125        0.42592500000000005        0.403888        0        
C4        C        0.15625        0.37037        0.403888        0        
C1        C        0.125        0.46296300000000007        0.403888        0        
C2        C        0.15625        0.518519        0.403888        0        
C3        C        0.125        0.537037        0.403888        0        
C4        C        0.15625        0.481481        0.403888        0        
C1        C        0.125        0.574075        0.403888        0        
C2        C        0.15625        0.62963        0.403888        0        
C3        C        0.125        0.648148        0.403888        0        
C4        C        0.15625        0.592592        0.403888        0        
C1        C        0.1875        0.018519        0.403888        0        
C2        C        0.21875        0.074075        0.403888        0        
C3        C        0.1875        0.092592        0.403888        0        
C4        C        0.21875        0.037037        0.403888        0        
C1        C        0.1875        0.12963        0.403888        0        
C2        C        0.21875        0.185185        0.403888        0        
C3        C        0.1875        0.203703        0.403888        0        
C4        C        0.21875        0.148148        0.403888        0        
C1        C        0.1875        0.24074099999999998        0.403888        0        
C2        C        0.21875        0.296297        0.403888        0        
C3        C        0.1875        0.314815        0.403888        0        
C4        C        0.21875        0.259259        0.403888        0        
C1        C        0.1875        0.351852        0.403888        0        
C2        C        0.21875        0.407408        0.403888        0        
C3        C        0.1875        0.42592500000000005        0.403888        0        
C4        C        0.21875        0.37037        0.403888        0        
C1        C        0.1875        0.46296300000000007        0.403888        0        
C2        C        0.21875        0.518519        0.403888        0        
C3        C        0.1875        0.537037        0.403888        0        
C4        C        0.21875        0.481481        0.403888        0        
C1        C        0.1875        0.574075        0.403888        0        
C2        C        0.21875        0.62963        0.403888        0        
C3        C        0.1875        0.648148        0.403888        0        
C4        C        0.21875        0.592592        0.403888        0        
C_FG        C        0.25        0.018519        0.403888        0.08        
C2        C        0.28125        0.074075        0.403888        0        
C3        C        0.25        0.092592        0.403888        0        
C4        C        0.28125        0.037037        0.403888        0        
C1        C        0.25        0.12963        0.403888        0        
C2        C        0.28125        0.185185        0.403888        0        
C_FG        C        0.25        0.203703        0.403888        0.08        
C4        C        0.28125        0.148148        0.403888        0        
C1        C        0.25        0.24074099999999998        0.403888        0        
C2        C        0.28125        0.296297        0.403888        0        
C3        C        0.25        0.314815        0.403888        0        
C4        C        0.28125        0.259259        0.403888        0        
C_FG        C        0.25        0.351852        0.403888        0.08        
C2        C        0.28125        0.407408        0.403888        0        
C3        C        0.25        0.42592500000000005        0.403888        0        
C4        C        0.28125        0.37037        0.403888        0        
C1        C        0.25        0.46296300000000007        0.403888        0        
C2        C        0.28125        0.518519        0.403888        0        
C_FG        C        0.25        0.537037        0.403888        0.08        
C4        C        0.28125        0.481481        0.403888        0        
C1        C        0.25        0.574075        0.403888        0        
C2        C        0.28125        0.62963        0.403888        0        
C3        C        0.25        0.648148        0.403888        0        
C4        C        0.28125        0.592592        0.403888        0        
C1        C        0.3125        0.018519        0.403888        0        
C2        C        0.34375        0.074075        0.403888        0        
C3        C        0.3125        0.092592        0.403888        0        
C4        C        0.34375        0.037037        0.403888        0        
C1        C        0.3125        0.12963        0.403888        0        
C2        C        0.34375        0.185185        0.403888        0        
C3        C        0.3125        0.203703        0.403888        0        
C4        C        0.34375        0.148148        0.403888        0        
C1        C        0.3125        0.24074099999999998        0.403888        0        
C2        C        0.34375        0.296297        0.403888        0        
C3        C        0.3125        0.314815        0.403888        0        
C4        C        0.34375        0.259259        0.403888        0        
C1        C        0.3125        0.351852        0.403888        0        
C2        C        0.34375        0.407408        0.403888        0        
C3        C        0.3125        0.42592500000000005        0.403888        0        
C4        C        0.34375        0.37037        0.403888        0        
C1        C        0.3125        0.46296300000000007        0.403888        0        
C2        C        0.34375        0.518519        0.403888        0        
C3        C        0.3125        0.537037        0.403888        0        
C4        C        0.34375        0.481481        0.403888        0        
C1        C        0.3125        0.574075        0.403888        0        
C2        C        0.34375        0.62963        0.403888        0        
C3        C        0.3125        0.648148        0.403888        0        
C4        C        0.34375        0.592592        0.403888        0        
C1        C        0.375        0.018519        0.403888        0        
C2        C        0.40625        0.074075        0.403888        0        
C3        C        0.375        0.092592        0.403888        0        
C4        C        0.40625        0.037037        0.403888        0        
C1        C        0.375        0.12963        0.403888        0        
C2        C        0.40625        0.185185        0.403888        0        
C3        C        0.375        0.203703        0.403888        0        
C4        C        0.40625        0.148148        0.403888        0        
C1        C        0.375        0.24074099999999998        0.403888        0        
C2        C        0.40625        0.296297        0.403888        0        
C3        C        0.375        0.314815        0.403888        0        
C4        C        0.40625        0.259259        0.403888        0        
C1        C        0.375        0.351852        0.403888        0        
C2        C        0.40625        0.407408        0.403888        0        
C3        C        0.375        0.42592500000000005        0.403888        0        
C4        C        0.40625        0.37037        0.403888        0        
C1        C        0.375        0.46296300000000007        0.403888        0        
C2        C        0.40625        0.518519        0.403888        0        
C3        C        0.375        0.537037        0.403888        0        
C4        C        0.40625        0.481481        0.403888        0        
C1        C        0.375        0.574075        0.403888        0        
C2        C        0.40625        0.62963        0.403888        0        
C3        C        0.375        0.648148        0.403888        0        
C4        C        0.40625        0.592592        0.403888        0        
C1        C        0.4375        0.018519        0.403888        0        
C2        C        0.46875        0.074075        0.403888        0        
C3        C        0.4375        0.092592        0.403888        0        
C4        C        0.46875        0.037037        0.403888        0        
C1        C        0.4375        0.12963        0.403888        0        
C2        C        0.46875        0.185185        0.403888        0        
C3        C        0.4375        0.203703        0.403888        0        
C4        C        0.46875        0.148148        0.403888        0        
C1        C        0.4375        0.24074099999999998        0.403888        0        
C2        C        0.46875        0.296297        0.403888        0        
C3        C        0.4375        0.314815        0.403888        0        
C4        C        0.46875        0.259259        0.403888        0        
C1        C        0.4375        0.351852        0.403888        0        
C2        C        0.46875        0.407408        0.403888        0        
C3        C        0.4375        0.42592500000000005        0.403888        0        
C4        C        0.46875        0.37037        0.403888        0        
C1        C        0.4375        0.46296300000000007        0.403888        0        
C2        C        0.46875        0.518519        0.403888        0        
C3        C        0.4375        0.537037        0.403888        0        
C4        C        0.46875        0.481481        0.403888        0        
C1        C        0.4375        0.574075        0.403888        0        
C2        C        0.46875        0.62963        0.403888        0        
C3        C        0.4375        0.648148        0.403888        0        
C4        C        0.46875        0.592592        0.403888        0        
C_FG        C        0.5        0.018519        0.403888        0.08        
C2        C        0.53125        0.074075        0.403888        0        
C3        C        0.5        0.092592        0.403888        0        
C4        C        0.53125        0.037037        0.403888        0        
C1        C        0.5        0.12963        0.403888        0        
C2        C        0.53125        0.185185        0.403888        0        
C_FG        C        0.5        0.203703        0.403888        0.08        
C4        C        0.53125        0.148148        0.403888        0        
C1        C        0.5        0.24074099999999998        0.403888        0        
C2        C        0.53125        0.296297        0.403888        0        
C3        C        0.5        0.314815        0.403888        0        
C4        C        0.53125        0.259259        0.403888        0        
C_FG        C        0.5        0.351852        0.403888        0.08        
C2        C        0.53125        0.407408        0.403888        0        
C3        C        0.5        0.42592500000000005        0.403888        0        
C4        C        0.53125        0.37037        0.403888        0        
C1        C        0.5        0.46296300000000007        0.403888        0        
C2        C        0.53125        0.518519        0.403888        0        
C_FG        C        0.5        0.537037        0.403888        0.08        
C4        C        0.53125        0.481481        0.403888        0        
C1        C        0.5        0.574075        0.403888        0        
C2        C        0.53125        0.62963        0.403888        0        
C3        C        0.5        0.648148        0.403888        0        
C4        C        0.53125        0.592592        0.403888        0        
C1        C        0.5625        0.018519        0.403888        0        
C2        C        0.59375        0.074075        0.403888        0        
C3        C        0.5625        0.092592        0.403888        0        
C4        C        0.59375        0.037037        0.403888        0        
C1        C        0.5625        0.12963        0.403888        0        
C2        C        0.59375        0.185185        0.403888        0        
C3        C        0.5625        0.203703        0.403888        0        
C4        C        0.59375        0.148148        0.403888        0        
C1        C        0.5625        0.24074099999999998        0.403888        0        
C2        C        0.59375        0.296297        0.403888        0        
C3        C        0.5625        0.314815        0.403888        0        
C4        C        0.59375        0.259259        0.403888        0        
C1        C        0.5625        0.351852        0.403888        0        
C2        C        0.59375        0.407408        0.403888        0        
C3        C        0.5625        0.42592500000000005        0.403888        0        
C4        C        0.59375        0.37037        0.403888        0        
C1        C        0.5625        0.46296300000000007        0.403888        0        
C2        C        0.59375        0.518519        0.403888        0        
C3        C        0.5625        0.537037        0.403888        0        
C4        C        0.59375        0.481481        0.403888        0        
C1        C        0.5625        0.574075        0.403888        0        
C2        C        0.59375        0.62963        0.403888        0        
C3        C        0.5625        0.648148        0.403888        0        
C4        C        0.59375        0.592592        0.403888        0        
C1        C        0.625        0.018519        0.403888        0        
C2        C        0.65625        0.074075        0.403888        0        
C3        C        0.625        0.092592        0.403888        0        
C4        C        0.65625        0.037037        0.403888        0        
C1        C        0.625        0.12963        0.403888        0        
C2        C        0.65625        0.185185        0.403888        0        
C3        C        0.625        0.203703        0.403888        0        
C4        C        0.65625        0.148148        0.403888        0        
C1        C        0.625        0.24074099999999998        0.403888        0        
C2        C        0.65625        0.296297        0.403888        0        
C3        C        0.625        0.314815        0.403888        0        
C4        C        0.65625        0.259259        0.403888        0        
C1        C        0.625        0.351852        0.403888        0        
C2        C        0.65625        0.407408        0.403888        0        
C3        C        0.625        0.42592500000000005        0.403888        0        
C4        C        0.65625        0.37037        0.403888        0        
C1        C        0.625        0.46296300000000007        0.403888        0        
C2        C        0.65625        0.518519        0.403888        0        
C3        C        0.625        0.537037        0.403888        0        
C4        C        0.65625        0.481481        0.403888        0        
C1        C        0.625        0.574075        0.403888        0        
C2        C        0.65625        0.62963        0.403888        0        
C3        C        0.625        0.648148        0.403888        0        
C4        C        0.65625        0.592592        0.403888        0        
C1        C        0.6875        0.018519        0.403888        0        
C2        C        0.71875        0.074075        0.403888        0        
C3        C        0.6875        0.092592        0.403888        0        
C4        C        0.71875        0.037037        0.403888        0        
C1        C        0.6875        0.12963        0.403888        0        
C2        C        0.71875        0.185185        0.403888        0        
C3        C        0.6875        0.203703        0.403888        0        
C4        C        0.71875        0.148148        0.403888        0        
C1        C        0.6875        0.24074099999999998        0.403888        0        
C2        C        0.71875        0.296297        0.403888        0        
C3        C        0.6875        0.314815        0.403888        0        
C4        C        0.71875        0.259259        0.403888        0        
C1        C        0.6875        0.351852        0.403888        0        
C2        C        0.71875        0.407408        0.403888        0        
C3        C        0.6875        0.42592500000000005        0.403888        0        
C4        C        0.71875        0.37037        0.403888        0        
C1        C        0.6875        0.46296300000000007        0.403888        0        
C2        C        0.71875        0.518519        0.403888        0        
C3        C        0.6875        0.537037        0.403888        0        
C4        C        0.71875        0.481481        0.403888        0        
C1        C        0.6875        0.574075        0.403888        0        
C2        C        0.71875        0.62963        0.403888        0        
C3        C        0.6875        0.648148        0.403888        0        
C4        C        0.71875        0.592592        0.403888        0        
C_FG        C        0.75        0.018519        0.403888        0.08        
C2        C        0.78125        0.074075        0.403888        0        
C3        C        0.75        0.092592        0.403888        0        
C4        C        0.78125        0.037037        0.403888        0        
C1        C        0.75        0.12963        0.403888        0        
C2        C        0.78125        0.185185        0.403888        0        
C_FG        C        0.75        0.203703        0.403888        0.08        
C4        C        0.78125        0.148148        0.403888        0        
C1        C        0.75        0.24074099999999998        0.403888        0        
C2        C        0.78125        0.296297        0.403888        0        
C3        C        0.75        0.314815        0.403888        0        
C4        C        0.78125        0.259259        0.403888        0        
C_FG        C        0.75        0.351852        0.403888        0.08        
C2        C        0.78125        0.407408        0.403888        0        
C3        C        0.75        0.42592500000000005        0.403888        0        
C4        C        0.78125        0.37037        0.403888        0        
C1        C        0.75        0.46296300000000007        0.403888        0        
C2        C        0.78125        0.518519        0.403888        0        
C_FG        C        0.75        0.537037        0.403888        0.08        
C4        C        0.78125        0.481481        0.403888        0        
C1        C        0.75        0.574075        0.403888        0        
C2        C        0.78125        0.62963        0.403888        0        
C3        C        0.75        0.648148        0.403888        0        
C4        C        0.78125        0.592592        0.403888        0        
C1        C        0.8125        0.018519        0.403888        0        
C2        C        0.84375        0.074075        0.403888        0        
C3        C        0.8125        0.092592        0.403888        0        
C4        C        0.84375        0.037037        0.403888        0        
C1        C        0.8125        0.12963        0.403888        0        
C2        C        0.84375        0.185185        0.403888        0        
C3        C        0.8125        0.203703        0.403888        0        
C4        C        0.84375        0.148148        0.403888        0        
C1        C        0.8125        0.24074099999999998        0.403888        0        
C2        C        0.84375        0.296297        0.403888        0        
C3        C        0.8125        0.314815        0.403888        0        
C4        C        0.84375        0.259259        0.403888        0        
C1        C        0.8125        0.351852        0.403888        0        
C2        C        0.84375        0.407408        0.403888        0        
C3        C        0.8125        0.42592500000000005        0.403888        0        
C4        C        0.84375        0.37037        0.403888        0        
C1        C        0.8125        0.46296300000000007        0.403888        0        
C2        C        0.84375        0.518519        0.403888        0        
C3        C        0.8125        0.537037        0.403888        0        
C4        C        0.84375        0.481481        0.403888        0        
C1        C        0.8125        0.574075        0.403888        0        
C2        C        0.84375        0.62963        0.403888        0        
C3        C        0.8125        0.648148        0.403888        0        
C4        C        0.84375        0.592592        0.403888        0        
C1        C        0.875        0.018519        0.403888        0        
C2        C        0.9062500000000001        0.074075        0.403888        0        
C3        C        0.875        0.092592        0.403888        0        
C4        C        0.9062500000000001        0.037037        0.403888        0        
C1        C        0.875        0.12963        0.403888        0        
C2        C        0.9062500000000001        0.185185        0.403888        0        
C3        C        0.875        0.203703        0.403888        0        
C4        C        0.9062500000000001        0.148148        0.403888        0        
C1        C        0.875        0.24074099999999998        0.403888        0        
C2        C        0.9062500000000001        0.296297        0.403888        0        
C3        C        0.875        0.314815        0.403888        0        
C4        C        0.9062500000000001        0.259259        0.403888        0        
C1        C        0.875        0.351852        0.403888        0        
C2        C        0.9062500000000001        0.407408        0.403888        0        
C3        C        0.875        0.42592500000000005        0.403888        0        
C4        C        0.9062500000000001        0.37037        0.403888        0        
C1        C        0.875        0.46296300000000007        0.403888        0        
C2        C        0.9062500000000001        0.518519        0.403888        0        
C3        C        0.875        0.537037        0.403888        0        
C4        C        0.9062500000000001        0.481481        0.403888        0        
C1        C        0.875        0.574075        0.403888        0        
C2        C        0.9062500000000001        0.62963        0.403888        0        
C3        C        0.875        0.648148        0.403888        0        
C4        C        0.9062500000000001        0.592592        0.403888        0        
C1        C        0.9375        0.018519        0.403888        0        
C2        C        0.9687500000000001        0.074075        0.403888        0        
C3        C        0.9375        0.092592        0.403888        0        
C4        C        0.9687500000000001        0.037037        0.403888        0        
C1        C        0.9375        0.12963        0.403888        0        
C2        C        0.9687500000000001        0.185185        0.403888        0        
C3        C        0.9375        0.203703        0.403888        0        
C4        C        0.9687500000000001        0.148148        0.403888        0        
C1        C        0.9375        0.24074099999999998        0.403888        0        
C2        C        0.9687500000000001        0.296297        0.403888        0        
C3        C        0.9375        0.314815        0.403888        0        
C4        C        0.9687500000000001        0.259259        0.403888        0        
C1        C        0.9375        0.351852        0.403888        0        
C2        C        0.9687500000000001        0.407408        0.403888        0        
C3        C        0.9375        0.42592500000000005        0.403888        0        
C4        C        0.9687500000000001        0.37037        0.403888        0        
C1        C        0.9375        0.46296300000000007        0.403888        0        
C2        C        0.9687500000000001        0.518519        0.403888        0        
C3        C        0.9375        0.537037        0.403888        0        
C4        C        0.9687500000000001        0.481481        0.403888        0        
C1        C        0.9375        0.574075        0.403888        0        
C2        C        0.9687500000000001        0.62963        0.403888        0        
C3        C        0.9375        0.648148        0.403888        0        
C4        C        0.9687500000000001        0.592592        0.403888        0        
C_FG        C        0.0        0.685186        0.403888        0.08        
C1        C        0.0625        0.685186        0.403888        0        
C1        C        0.125        0.685186        0.403888        0        
C1        C        0.1875        0.685186        0.403888        0        
C_FG        C        0.25        0.685186        0.403888        0.08        
C1        C        0.3125        0.685186        0.403888        0        
C1        C        0.375        0.685186        0.403888        0        
C1        C        0.4375        0.685186        0.403888        0        
C_FG        C        0.5        0.685186        0.403888        0.08        
C1        C        0.5625        0.685186        0.403888        0        
C1        C        0.625        0.685186        0.403888        0        
C1        C        0.6875        0.685186        0.403888        0        
C_FG        C        0.75        0.685186        0.403888        0.08        
C1        C        0.8125        0.685186        0.403888        0        
C1        C        0.875        0.685186        0.403888        0        
C1        C        0.9375        0.685186        0.403888        0        
C2        C        0.03125        0.740741        0.403888        0        
C2        C        0.09375        0.740741        0.403888        0        
C2        C        0.15625        0.740741        0.403888        0        
C2        C        0.21875        0.740741        0.403888        0        
C2        C        0.28125        0.740741        0.403888        0        
C2        C        0.34375        0.740741        0.403888        0        
C2        C        0.40625        0.740741        0.403888        0        
C2        C        0.46875        0.740741        0.403888        0        
C2        C        0.53125        0.740741        0.403888        0        
C2        C        0.59375        0.740741        0.403888        0        
C2        C        0.65625        0.740741        0.403888        0        
C2        C        0.71875        0.740741        0.403888        0        
C2        C        0.78125        0.740741        0.403888        0        
C2        C        0.84375        0.740741        0.403888        0        
C2        C        0.9062500000000001        0.740741        0.403888        0        
C2        C        0.9687500000000001        0.740741        0.403888        0        
C3        C        0.0        0.759259        0.403888        0        
C3        C        0.0625        0.759259        0.403888        0        
C3        C        0.125        0.759259        0.403888        0        
C3        C        0.1875        0.759259        0.403888        0        
C3        C        0.25        0.759259        0.403888        0        
C3        C        0.3125        0.759259        0.403888        0        
C3        C        0.375        0.759259        0.403888        0        
C3        C        0.4375        0.759259        0.403888        0        
C3        C        0.5        0.759259        0.403888        0        
C3        C        0.5625        0.759259        0.403888        0        
C3        C        0.625        0.759259        0.403888        0        
C3        C        0.6875        0.759259        0.403888        0        
C3        C        0.75        0.759259        0.403888        0        
C3        C        0.8125        0.759259        0.403888        0        
C3        C        0.875        0.759259        0.403888        0        
C3        C        0.9375        0.759259        0.403888        0        
C4        C        0.03125        0.703703        0.403888        0        
C4        C        0.09375        0.703703        0.403888        0        
C4        C        0.15625        0.703703        0.403888        0        
C4        C        0.21875        0.703703        0.403888        0        
C4        C        0.28125        0.703703        0.403888        0        
C4        C        0.34375        0.703703        0.403888        0        
C4        C        0.40625        0.703703        0.403888        0        
C4        C        0.46875        0.703703        0.403888        0        
C4        C        0.53125        0.703703        0.403888        0        
C4        C        0.59375        0.703703        0.403888        0        
C4        C        0.65625        0.703703        0.403888        0        
C4        C        0.71875        0.703703        0.403888        0        
C4        C        0.78125        0.703703        0.403888        0        
C4        C        0.84375        0.703703        0.403888        0        
C4        C        0.9062500000000001        0.703703        0.403888        0        
C4        C        0.9687500000000001        0.703703        0.403888        0        
C1        C        0.0        0.796297        0.403888        0        
C1        C        0.0625        0.796297        0.403888        0        
C1        C        0.125        0.796297        0.403888        0        
C1        C        0.1875        0.796297        0.403888        0        
C1        C        0.25        0.796297        0.403888        0        
C1        C        0.3125        0.796297        0.403888        0        
C1        C        0.375        0.796297        0.403888        0        
C1        C        0.4375        0.796297        0.403888        0        
C1        C        0.5        0.796297        0.403888        0        
C1        C        0.5625        0.796297        0.403888        0        
C1        C        0.625        0.796297        0.403888        0        
C1        C        0.6875        0.796297        0.403888        0        
C1        C        0.75        0.796297        0.403888        0        
C1        C        0.8125        0.796297        0.403888        0        
C1        C        0.875        0.796297        0.403888        0        
C1        C        0.9375        0.796297        0.403888        0        
C2        C        0.03125        0.851852        0.403888        0        
C2        C        0.09375        0.851852        0.403888        0        
C2        C        0.15625        0.851852        0.403888        0        
C2        C        0.21875        0.851852        0.403888        0        
C2        C        0.28125        0.851852        0.403888        0        
C2        C        0.34375        0.851852        0.403888        0        
C2        C        0.40625        0.851852        0.403888        0        
C2        C        0.46875        0.851852        0.403888        0        
C2        C        0.53125        0.851852        0.403888        0        
C2        C        0.59375        0.851852        0.403888        0        
C2        C        0.65625        0.851852        0.403888        0        
C2        C        0.71875        0.851852        0.403888        0        
C2        C        0.78125        0.851852        0.403888        0        
C2        C        0.84375        0.851852        0.403888        0        
C2        C        0.9062500000000001        0.851852        0.403888        0        
C2        C        0.9687500000000001        0.851852        0.403888        0        
C_FG        C        0.0        0.87037        0.403888        0.08        
C3        C        0.0625        0.87037        0.403888        0        
C3        C        0.125        0.87037        0.403888        0        
C3        C        0.1875        0.87037        0.403888        0        
C_FG        C        0.25        0.87037        0.403888        0.08        
C3        C        0.3125        0.87037        0.403888        0        
C3        C        0.375        0.87037        0.403888        0        
C3        C        0.4375        0.87037        0.403888        0        
C_FG        C        0.5        0.87037        0.403888        0.08        
C3        C        0.5625        0.87037        0.403888        0        
C3        C        0.625        0.87037        0.403888        0        
C3        C        0.6875        0.87037        0.403888        0        
C_FG        C        0.75        0.87037        0.403888        0.08        
C3        C        0.8125        0.87037        0.403888        0        
C3        C        0.875        0.87037        0.403888        0        
C3        C        0.9375        0.87037        0.403888        0        
C4        C        0.03125        0.814814        0.403888        0        
C4        C        0.09375        0.814814        0.403888        0        
C4        C        0.15625        0.814814        0.403888        0        
C4        C        0.21875        0.814814        0.403888        0        
C4        C        0.28125        0.814814        0.403888        0        
C4        C        0.34375        0.814814        0.403888        0        
C4        C        0.40625        0.814814        0.403888        0        
C4        C        0.46875        0.814814        0.403888        0        
C4        C        0.53125        0.814814        0.403888        0        
C4        C        0.59375        0.814814        0.403888        0        
C4        C        0.65625        0.814814        0.403888        0        
C4        C        0.71875        0.814814        0.403888        0        
C4        C        0.78125        0.814814        0.403888        0        
C4        C        0.84375        0.814814        0.403888        0        
C4        C        0.9062500000000001        0.814814        0.403888        0        
C4        C        0.9687500000000001        0.814814        0.403888        0        
C1        C        0.0        0.907408        0.403888        0        
C1        C        0.0625        0.907408        0.403888        0        
C1        C        0.125        0.907408        0.403888        0        
C1        C        0.1875        0.907408        0.403888        0        
C1        C        0.25        0.907408        0.403888        0        
C1        C        0.3125        0.907408        0.403888        0        
C1        C        0.375        0.907408        0.403888        0        
C1        C        0.4375        0.907408        0.403888        0        
C1        C        0.5        0.907408        0.403888        0        
C1        C        0.5625        0.907408        0.403888        0        
C1        C        0.625        0.907408        0.403888        0        
C1        C        0.6875        0.907408        0.403888        0        
C1        C        0.75        0.907408        0.403888        0        
C1        C        0.8125        0.907408        0.403888        0        
C1        C        0.875        0.907408        0.403888        0        
C1        C        0.9375        0.907408        0.403888        0        
C2        C        0.03125        0.962963        0.403888        0        
C2        C        0.09375        0.962963        0.403888        0        
C2        C        0.15625        0.962963        0.403888        0        
C2        C        0.21875        0.962963        0.403888        0        
C2        C        0.28125        0.962963        0.403888        0        
C2        C        0.34375        0.962963        0.403888        0        
C2        C        0.40625        0.962963        0.403888        0        
C2        C        0.46875        0.962963        0.403888        0        
C2        C        0.53125        0.962963        0.403888        0        
C2        C        0.59375        0.962963        0.403888        0        
C2        C        0.65625        0.962963        0.403888        0        
C2        C        0.71875        0.962963        0.403888        0        
C2        C        0.78125        0.962963        0.403888        0        
C2        C        0.84375        0.962963        0.403888        0        
C2        C        0.9062500000000001        0.962963        0.403888        0        
C2        C        0.9687500000000001        0.962963        0.403888        0        
C3        C        0.0        0.9814809999999999        0.403888        0        
C3        C        0.0625        0.9814809999999999        0.403888        0        
C3        C        0.125        0.9814809999999999        0.403888        0        
C3        C        0.1875        0.9814809999999999        0.403888        0        
C3        C        0.25        0.9814809999999999        0.403888        0        
C3        C        0.3125        0.9814809999999999        0.403888        0        
C3        C        0.375        0.9814809999999999        0.403888        0        
C3        C        0.4375        0.9814809999999999        0.403888        0        
C3        C        0.5        0.9814809999999999        0.403888        0        
C3        C        0.5625        0.9814809999999999        0.403888        0        
C3        C        0.625        0.9814809999999999        0.403888        0        
C3        C        0.6875        0.9814809999999999        0.403888        0        
C3        C        0.75        0.9814809999999999        0.403888        0        
C3        C        0.8125        0.9814809999999999        0.403888        0        
C3        C        0.875        0.9814809999999999        0.403888        0        
C3        C        0.9375        0.9814809999999999        0.403888        0        
C4        C        0.03125        0.925925        0.403888        0        
C4        C        0.09375        0.925925        0.403888        0        
C4        C        0.15625        0.925925        0.403888        0        
C4        C        0.21875        0.925925        0.403888        0        
C4        C        0.28125        0.925925        0.403888        0        
C4        C        0.34375        0.925925        0.403888        0        
C4        C        0.40625        0.925925        0.403888        0        
C4        C        0.46875        0.925925        0.403888        0        
C4        C        0.53125        0.925925        0.403888        0        
C4        C        0.59375        0.925925        0.403888        0        
C4        C        0.65625        0.925925        0.403888        0        
C4        C        0.71875        0.925925        0.403888        0        
C4        C        0.78125        0.925925        0.403888        0        
C4        C        0.84375        0.925925        0.403888        0        
C4        C        0.9062500000000001        0.925925        0.403888        0        
C4        C        0.9687500000000001        0.925925        0.403888        0        
C_FG        C        0.0        0.018519        0.596113        0.08        
C2        C        0.03125        0.074075        0.596113        0        
C3        C        0.0        0.092592        0.596113        0        
C4        C        0.03125        0.037037        0.596113        0        
C1        C        0.0        0.12963        0.596113        0        
C2        C        0.03125        0.185185        0.596113        0        
C_FG        C        0.0        0.203703        0.596113        0.08        
C4        C        0.03125        0.148148        0.596113        0        
C1        C        0.0        0.24074099999999998        0.596113        0        
C2        C        0.03125        0.296297        0.596113        0        
C3        C        0.0        0.314815        0.596113        0        
C4        C        0.03125        0.259259        0.596113        0        
C_FG        C        0.0        0.351852        0.596113        0.08        
C2        C        0.03125        0.407408        0.596113        0        
C3        C        0.0        0.42592500000000005        0.596113        0        
C4        C        0.03125        0.37037        0.596113        0        
C1        C        0.0        0.46296300000000007        0.596113        0        
C2        C        0.03125        0.518519        0.596113        0        
C_FG        C        0.0        0.537037        0.596113        0.08        
C4        C        0.03125        0.481481        0.596113        0        
C1        C        0.0        0.574075        0.596113        0        
C2        C        0.03125        0.62963        0.596113        0        
C3        C        0.0        0.648148        0.596113        0        
C4        C        0.03125        0.592592        0.596113        0        
C1        C        0.0625        0.018519        0.596113        0        
C2        C        0.09375        0.074075        0.596113        0        
C3        C        0.0625        0.092592        0.596113        0        
C4        C        0.09375        0.037037        0.596113        0        
C1        C        0.0625        0.12963        0.596113        0        
C2        C        0.09375        0.185185        0.596113        0        
C3        C        0.0625        0.203703        0.596113        0        
C4        C        0.09375        0.148148        0.596113        0        
C1        C        0.0625        0.24074099999999998        0.596113        0        
C2        C        0.09375        0.296297        0.596113        0        
C3        C        0.0625        0.314815        0.596113        0        
C4        C        0.09375        0.259259        0.596113        0        
C1        C        0.0625        0.351852        0.596113        0        
C2        C        0.09375        0.407408        0.596113        0        
C3        C        0.0625        0.42592500000000005        0.596113        0        
C4        C        0.09375        0.37037        0.596113        0        
C1        C        0.0625        0.46296300000000007        0.596113        0        
C2        C        0.09375        0.518519        0.596113        0        
C3        C        0.0625        0.537037        0.596113        0        
C4        C        0.09375        0.481481        0.596113        0        
C1        C        0.0625        0.574075        0.596113        0        
C2        C        0.09375        0.62963        0.596113        0        
C3        C        0.0625        0.648148        0.596113        0        
C4        C        0.09375        0.592592        0.596113        0        
C1        C        0.125        0.018519        0.596113        0        
C2        C        0.15625        0.074075        0.596113        0        
C3        C        0.125        0.092592        0.596113        0        
C4        C        0.15625        0.037037        0.596113        0        
C1        C        0.125        0.12963        0.596113        0        
C2        C        0.15625        0.185185        0.596113        0        
C3        C        0.125        0.203703        0.596113        0        
C4        C        0.15625        0.148148        0.596113        0        
C1        C        0.125        0.24074099999999998        0.596113        0        
C2        C        0.15625        0.296297        0.596113        0        
C3        C        0.125        0.314815        0.596113        0        
C4        C        0.15625        0.259259        0.596113        0        
C1        C        0.125        0.351852        0.596113        0        
C2        C        0.15625        0.407408        0.596113        0        
C3        C        0.125        0.42592500000000005        0.596113        0        
C4        C        0.15625        0.37037        0.596113        0        
C1        C        0.125        0.46296300000000007        0.596113        0        
C2        C        0.15625        0.518519        0.596113        0        
C3        C        0.125        0.537037        0.596113        0        
C4        C        0.15625        0.481481        0.596113        0        
C1        C        0.125        0.574075        0.596113        0        
C2        C        0.15625        0.62963        0.596113        0        
C3        C        0.125        0.648148        0.596113        0        
C4        C        0.15625        0.592592        0.596113        0        
C1        C        0.1875        0.018519        0.596113        0        
C2        C        0.21875        0.074075        0.596113        0        
C3        C        0.1875        0.092592        0.596113        0        
C4        C        0.21875        0.037037        0.596113        0        
C1        C        0.1875        0.12963        0.596113        0        
C2        C        0.21875        0.185185        0.596113        0        
C3        C        0.1875        0.203703        0.596113        0        
C4        C        0.21875        0.148148        0.596113        0        
C1        C        0.1875        0.24074099999999998        0.596113        0        
C2        C        0.21875        0.296297        0.596113        0        
C3        C        0.1875        0.314815        0.596113        0        
C4        C        0.21875        0.259259        0.596113        0        
C1        C        0.1875        0.351852        0.596113        0        
C2        C        0.21875        0.407408        0.596113        0        
C3        C        0.1875        0.42592500000000005        0.596113        0        
C4        C        0.21875        0.37037        0.596113        0        
C1        C        0.1875        0.46296300000000007        0.596113        0        
C2        C        0.21875        0.518519        0.596113        0        
C3        C        0.1875        0.537037        0.596113        0        
C4        C        0.21875        0.481481        0.596113        0        
C1        C        0.1875        0.574075        0.596113        0        
C2        C        0.21875        0.62963        0.596113        0        
C3        C        0.1875        0.648148        0.596113        0        
C4        C        0.21875        0.592592        0.596113        0        
C_FG        C        0.25        0.018519        0.596113        0.08        
C2        C        0.28125        0.074075        0.596113        0        
C3        C        0.25        0.092592        0.596113        0        
C4        C        0.28125        0.037037        0.596113        0        
C1        C        0.25        0.12963        0.596113        0        
C2        C        0.28125        0.185185        0.596113        0        
C_FG        C        0.25        0.203703        0.596113        0.08        
C4        C        0.28125        0.148148        0.596113        0        
C1        C        0.25        0.24074099999999998        0.596113        0        
C2        C        0.28125        0.296297        0.596113        0        
C3        C        0.25        0.314815        0.596113        0        
C4        C        0.28125        0.259259        0.596113        0        
C_FG        C        0.25        0.351852        0.596113        0.08        
C2        C        0.28125        0.407408        0.596113        0        
C3        C        0.25        0.42592500000000005        0.596113        0        
C4        C        0.28125        0.37037        0.596113        0        
C1        C        0.25        0.46296300000000007        0.596113        0        
C2        C        0.28125        0.518519        0.596113        0        
C_FG        C        0.25        0.537037        0.596113        0.08        
C4        C        0.28125        0.481481        0.596113        0        
C1        C        0.25        0.574075        0.596113        0        
C2        C        0.28125        0.62963        0.596113        0        
C3        C        0.25        0.648148        0.596113        0        
C4        C        0.28125        0.592592        0.596113        0        
C1        C        0.3125        0.018519        0.596113        0        
C2        C        0.34375        0.074075        0.596113        0        
C3        C        0.3125        0.092592        0.596113        0        
C4        C        0.34375        0.037037        0.596113        0        
C1        C        0.3125        0.12963        0.596113        0        
C2        C        0.34375        0.185185        0.596113        0        
C3        C        0.3125        0.203703        0.596113        0        
C4        C        0.34375        0.148148        0.596113        0        
C1        C        0.3125        0.24074099999999998        0.596113        0        
C2        C        0.34375        0.296297        0.596113        0        
C3        C        0.3125        0.314815        0.596113        0        
C4        C        0.34375        0.259259        0.596113        0        
C1        C        0.3125        0.351852        0.596113        0        
C2        C        0.34375        0.407408        0.596113        0        
C3        C        0.3125        0.42592500000000005        0.596113        0        
C4        C        0.34375        0.37037        0.596113        0        
C1        C        0.3125        0.46296300000000007        0.596113        0        
C2        C        0.34375        0.518519        0.596113        0        
C3        C        0.3125        0.537037        0.596113        0        
C4        C        0.34375        0.481481        0.596113        0        
C1        C        0.3125        0.574075        0.596113        0        
C2        C        0.34375        0.62963        0.596113        0        
C3        C        0.3125        0.648148        0.596113        0        
C4        C        0.34375        0.592592        0.596113        0        
C1        C        0.375        0.018519        0.596113        0        
C2        C        0.40625        0.074075        0.596113        0        
C3        C        0.375        0.092592        0.596113        0        
C4        C        0.40625        0.037037        0.596113        0        
C1        C        0.375        0.12963        0.596113        0        
C2        C        0.40625        0.185185        0.596113        0        
C3        C        0.375        0.203703        0.596113        0        
C4        C        0.40625        0.148148        0.596113        0        
C1        C        0.375        0.24074099999999998        0.596113        0        
C2        C        0.40625        0.296297        0.596113        0        
C3        C        0.375        0.314815        0.596113        0        
C4        C        0.40625        0.259259        0.596113        0        
C1        C        0.375        0.351852        0.596113        0        
C2        C        0.40625        0.407408        0.596113        0        
C3        C        0.375        0.42592500000000005        0.596113        0        
C4        C        0.40625        0.37037        0.596113        0        
C1        C        0.375        0.46296300000000007        0.596113        0        
C2        C        0.40625        0.518519        0.596113        0        
C3        C        0.375        0.537037        0.596113        0        
C4        C        0.40625        0.481481        0.596113        0        
C1        C        0.375        0.574075        0.596113        0        
C2        C        0.40625        0.62963        0.596113        0        
C3        C        0.375        0.648148        0.596113        0        
C4        C        0.40625        0.592592        0.596113        0        
C1        C        0.4375        0.018519        0.596113        0        
C2        C        0.46875        0.074075        0.596113        0        
C3        C        0.4375        0.092592        0.596113        0        
C4        C        0.46875        0.037037        0.596113        0        
C1        C        0.4375        0.12963        0.596113        0        
C2        C        0.46875        0.185185        0.596113        0        
C3        C        0.4375        0.203703        0.596113        0        
C4        C        0.46875        0.148148        0.596113        0        
C1        C        0.4375        0.24074099999999998        0.596113        0        
C2        C        0.46875        0.296297        0.596113        0        
C3        C        0.4375        0.314815        0.596113        0        
C4        C        0.46875        0.259259        0.596113        0        
C1        C        0.4375        0.351852        0.596113        0        
C2        C        0.46875        0.407408        0.596113        0        
C3        C        0.4375        0.42592500000000005        0.596113        0        
C4        C        0.46875        0.37037        0.596113        0        
C1        C        0.4375        0.46296300000000007        0.596113        0        
C2        C        0.46875        0.518519        0.596113        0        
C3        C        0.4375        0.537037        0.596113        0        
C4        C        0.46875        0.481481        0.596113        0        
C1        C        0.4375        0.574075        0.596113        0        
C2        C        0.46875        0.62963        0.596113        0        
C3        C        0.4375        0.648148        0.596113        0        
C4        C        0.46875        0.592592        0.596113        0        
C_FG        C        0.5        0.018519        0.596113        0.08        
C2        C        0.53125        0.074075        0.596113        0        
C3        C        0.5        0.092592        0.596113        0        
C4        C        0.53125        0.037037        0.596113        0        
C1        C        0.5        0.12963        0.596113        0        
C2        C        0.53125        0.185185        0.596113        0        
C_FG        C        0.5        0.203703        0.596113        0.08        
C4        C        0.53125        0.148148        0.596113        0        
C1        C        0.5        0.24074099999999998        0.596113        0        
C2        C        0.53125        0.296297        0.596113        0        
C3        C        0.5        0.314815        0.596113        0        
C4        C        0.53125        0.259259        0.596113        0        
C_FG        C        0.5        0.351852        0.596113        0.08        
C2        C        0.53125        0.407408        0.596113        0        
C3        C        0.5        0.42592500000000005        0.596113        0        
C4        C        0.53125        0.37037        0.596113        0        
C1        C        0.5        0.46296300000000007        0.596113        0        
C2        C        0.53125        0.518519        0.596113        0        
C_FG        C        0.5        0.537037        0.596113        0.08        
C4        C        0.53125        0.481481        0.596113        0        
C1        C        0.5        0.574075        0.596113        0        
C2        C        0.53125        0.62963        0.596113        0        
C3        C        0.5        0.648148        0.596113        0        
C4        C        0.53125        0.592592        0.596113        0        
C1        C        0.5625        0.018519        0.596113        0        
C2        C        0.59375        0.074075        0.596113        0        
C3        C        0.5625        0.092592        0.596113        0        
C4        C        0.59375        0.037037        0.596113        0        
C1        C        0.5625        0.12963        0.596113        0        
C2        C        0.59375        0.185185        0.596113        0        
C3        C        0.5625        0.203703        0.596113        0        
C4        C        0.59375        0.148148        0.596113        0        
C1        C        0.5625        0.24074099999999998        0.596113        0        
C2        C        0.59375        0.296297        0.596113        0        
C3        C        0.5625        0.314815        0.596113        0        
C4        C        0.59375        0.259259        0.596113        0        
C1        C        0.5625        0.351852        0.596113        0        
C2        C        0.59375        0.407408        0.596113        0        
C3        C        0.5625        0.42592500000000005        0.596113        0        
C4        C        0.59375        0.37037        0.596113        0        
C1        C        0.5625        0.46296300000000007        0.596113        0        
C2        C        0.59375        0.518519        0.596113        0        
C3        C        0.5625        0.537037        0.596113        0        
C4        C        0.59375        0.481481        0.596113        0        
C1        C        0.5625        0.574075        0.596113        0        
C2        C        0.59375        0.62963        0.596113        0        
C3        C        0.5625        0.648148        0.596113        0        
C4        C        0.59375        0.592592        0.596113        0        
C1        C        0.625        0.018519        0.596113        0        
C2        C        0.65625        0.074075        0.596113        0        
C3        C        0.625        0.092592        0.596113        0        
C4        C        0.65625        0.037037        0.596113        0        
C1        C        0.625        0.12963        0.596113        0        
C2        C        0.65625        0.185185        0.596113        0        
C3        C        0.625        0.203703        0.596113        0        
C4        C        0.65625        0.148148        0.596113        0        
C1        C        0.625        0.24074099999999998        0.596113        0        
C2        C        0.65625        0.296297        0.596113        0        
C3        C        0.625        0.314815        0.596113        0        
C4        C        0.65625        0.259259        0.596113        0        
C1        C        0.625        0.351852        0.596113        0        
C2        C        0.65625        0.407408        0.596113        0        
C3        C        0.625        0.42592500000000005        0.596113        0        
C4        C        0.65625        0.37037        0.596113        0        
C1        C        0.625        0.46296300000000007        0.596113        0        
C2        C        0.65625        0.518519        0.596113        0        
C3        C        0.625        0.537037        0.596113        0        
C4        C        0.65625        0.481481        0.596113        0        
C1        C        0.625        0.574075        0.596113        0        
C2        C        0.65625        0.62963        0.596113        0        
C3        C        0.625        0.648148        0.596113        0        
C4        C        0.65625        0.592592        0.596113        0        
C1        C        0.6875        0.018519        0.596113        0        
C2        C        0.71875        0.074075        0.596113        0        
C3        C        0.6875        0.092592        0.596113        0        
C4        C        0.71875        0.037037        0.596113        0        
C1        C        0.6875        0.12963        0.596113        0        
C2        C        0.71875        0.185185        0.596113        0        
C3        C        0.6875        0.203703        0.596113        0        
C4        C        0.71875        0.148148        0.596113        0        
C1        C        0.6875        0.24074099999999998        0.596113        0        
C2        C        0.71875        0.296297        0.596113        0        
C3        C        0.6875        0.314815        0.596113        0        
C4        C        0.71875        0.259259        0.596113        0        
C1        C        0.6875        0.351852        0.596113        0        
C2        C        0.71875        0.407408        0.596113        0        
C3        C        0.6875        0.42592500000000005        0.596113        0        
C4        C        0.71875        0.37037        0.596113        0        
C1        C        0.6875        0.46296300000000007        0.596113        0        
C2        C        0.71875        0.518519        0.596113        0        
C3        C        0.6875        0.537037        0.596113        0        
C4        C        0.71875        0.481481        0.596113        0        
C1        C        0.6875        0.574075        0.596113        0        
C2        C        0.71875        0.62963        0.596113        0        
C3        C        0.6875        0.648148        0.596113        0        
C4        C        0.71875        0.592592        0.596113        0        
C_FG        C        0.75        0.018519        0.596113        0.08        
C2        C        0.78125        0.074075        0.596113        0        
C3        C        0.75        0.092592        0.596113        0        
C4        C        0.78125        0.037037        0.596113        0        
C1        C        0.75        0.12963        0.596113        0        
C2        C        0.78125        0.185185        0.596113        0        
C_FG        C        0.75        0.203703        0.596113        0.08        
C4        C        0.78125        0.148148        0.596113        0        
C1        C        0.75        0.24074099999999998        0.596113        0        
C2        C        0.78125        0.296297        0.596113        0        
C3        C        0.75        0.314815        0.596113        0        
C4        C        0.78125        0.259259        0.596113        0        
C_FG        C        0.75        0.351852        0.596113        0.08        
C2        C        0.78125        0.407408        0.596113        0        
C3        C        0.75        0.42592500000000005        0.596113        0        
C4        C        0.78125        0.37037        0.596113        0        
C1        C        0.75        0.46296300000000007        0.596113        0        
C2        C        0.78125        0.518519        0.596113        0        
C_FG        C        0.75        0.537037        0.596113        0.08        
C4        C        0.78125        0.481481        0.596113        0        
C1        C        0.75        0.574075        0.596113        0        
C2        C        0.78125        0.62963        0.596113        0        
C3        C        0.75        0.648148        0.596113        0        
C4        C        0.78125        0.592592        0.596113        0        
C1        C        0.8125        0.018519        0.596113        0        
C2        C        0.84375        0.074075        0.596113        0        
C3        C        0.8125        0.092592        0.596113        0        
C4        C        0.84375        0.037037        0.596113        0        
C1        C        0.8125        0.12963        0.596113        0        
C2        C        0.84375        0.185185        0.596113        0        
C3        C        0.8125        0.203703        0.596113        0        
C4        C        0.84375        0.148148        0.596113        0        
C1        C        0.8125        0.24074099999999998        0.596113        0        
C2        C        0.84375        0.296297        0.596113        0        
C3        C        0.8125        0.314815        0.596113        0        
C4        C        0.84375        0.259259        0.596113        0        
C1        C        0.8125        0.351852        0.596113        0        
C2        C        0.84375        0.407408        0.596113        0        
C3        C        0.8125        0.42592500000000005        0.596113        0        
C4        C        0.84375        0.37037        0.596113        0        
C1        C        0.8125        0.46296300000000007        0.596113        0        
C2        C        0.84375        0.518519        0.596113        0        
C3        C        0.8125        0.537037        0.596113        0        
C4        C        0.84375        0.481481        0.596113        0        
C1        C        0.8125        0.574075        0.596113        0        
C2        C        0.84375        0.62963        0.596113        0        
C3        C        0.8125        0.648148        0.596113        0        
C4        C        0.84375        0.592592        0.596113        0        
C1        C        0.875        0.018519        0.596113        0        
C2        C        0.9062500000000001        0.074075        0.596113        0        
C3        C        0.875        0.092592        0.596113        0        
C4        C        0.9062500000000001        0.037037        0.596113        0        
C1        C        0.875        0.12963        0.596113        0        
C2        C        0.9062500000000001        0.185185        0.596113        0        
C3        C        0.875        0.203703        0.596113        0        
C4        C        0.9062500000000001        0.148148        0.596113        0        
C1        C        0.875        0.24074099999999998        0.596113        0        
C2        C        0.9062500000000001        0.296297        0.596113        0        
C3        C        0.875        0.314815        0.596113        0        
C4        C        0.9062500000000001        0.259259        0.596113        0        
C1        C        0.875        0.351852        0.596113        0        
C2        C        0.9062500000000001        0.407408        0.596113        0        
C3        C        0.875        0.42592500000000005        0.596113        0        
C4        C        0.9062500000000001        0.37037        0.596113        0        
C1        C        0.875        0.46296300000000007        0.596113        0        
C2        C        0.9062500000000001        0.518519        0.596113        0        
C3        C        0.875        0.537037        0.596113        0        
C4        C        0.9062500000000001        0.481481        0.596113        0        
C1        C        0.875        0.574075        0.596113        0        
C2        C        0.9062500000000001        0.62963        0.596113        0        
C3        C        0.875        0.648148        0.596113        0        
C4        C        0.9062500000000001        0.592592        0.596113        0        
C1        C        0.9375        0.018519        0.596113        0        
C2        C        0.9687500000000001        0.074075        0.596113        0        
C3        C        0.9375        0.092592        0.596113        0        
C4        C        0.9687500000000001        0.037037        0.596113        0        
C1        C        0.9375        0.12963        0.596113        0        
C2        C        0.9687500000000001        0.185185        0.596113        0        
C3        C        0.9375        0.203703        0.596113        0        
C4        C        0.9687500000000001        0.148148        0.596113        0        
C1        C        0.9375        0.24074099999999998        0.596113        0        
C2        C        0.9687500000000001        0.296297        0.596113        0        
C3        C        0.9375        0.314815        0.596113        0        
C4        C        0.9687500000000001        0.259259        0.596113        0        
C1        C        0.9375        0.351852        0.596113        0        
C2        C        0.9687500000000001        0.407408        0.596113        0        
C3        C        0.9375        0.42592500000000005        0.596113        0        
C4        C        0.9687500000000001        0.37037        0.596113        0        
C1        C        0.9375        0.46296300000000007        0.596113        0        
C2        C        0.9687500000000001        0.518519        0.596113        0        
C3        C        0.9375        0.537037        0.596113        0        
C4        C        0.9687500000000001        0.481481        0.596113        0        
C1        C        0.9375        0.574075        0.596113        0        
C2        C        0.9687500000000001        0.62963        0.596113        0        
C3        C        0.9375        0.648148        0.596113        0        
C4        C        0.9687500000000001        0.592592        0.596113        0        
C_FG        C        0.0        0.685186        0.596113        0.08        
C1        C        0.0625        0.685186        0.596113        0        
C1        C        0.125        0.685186        0.596113        0        
C1        C        0.1875        0.685186        0.596113        0        
C_FG        C        0.25        0.685186        0.596113        0.08        
C1        C        0.3125        0.685186        0.596113        0        
C1        C        0.375        0.685186        0.596113        0        
C1        C        0.4375        0.685186        0.596113        0        
C_FG        C        0.5        0.685186        0.596113        0.08        
C1        C        0.5625        0.685186        0.596113        0        
C1        C        0.625        0.685186        0.596113        0        
C1        C        0.6875        0.685186        0.596113        0        
C_FG        C        0.75        0.685186        0.596113        0.08        
C1        C        0.8125        0.685186        0.596113        0        
C1        C        0.875        0.685186        0.596113        0        
C1        C        0.9375        0.685186        0.596113        0        
C2        C        0.03125        0.740741        0.596113        0        
C2        C        0.09375        0.740741        0.596113        0        
C2        C        0.15625        0.740741        0.596113        0        
C2        C        0.21875        0.740741        0.596113        0        
C2        C        0.28125        0.740741        0.596113        0        
C2        C        0.34375        0.740741        0.596113        0        
C2        C        0.40625        0.740741        0.596113        0        
C2        C        0.46875        0.740741        0.596113        0        
C2        C        0.53125        0.740741        0.596113        0        
C2        C        0.59375        0.740741        0.596113        0        
C2        C        0.65625        0.740741        0.596113        0        
C2        C        0.71875        0.740741        0.596113        0        
C2        C        0.78125        0.740741        0.596113        0        
C2        C        0.84375        0.740741        0.596113        0        
C2        C        0.9062500000000001        0.740741        0.596113        0        
C2        C        0.9687500000000001        0.740741        0.596113        0        
C3        C        0.0        0.759259        0.596113        0        
C3        C        0.0625        0.759259        0.596113        0        
C3        C        0.125        0.759259        0.596113        0        
C3        C        0.1875        0.759259        0.596113        0        
C3        C        0.25        0.759259        0.596113        0        
C3        C        0.3125        0.759259        0.596113        0        
C3        C        0.375        0.759259        0.596113        0        
C3        C        0.4375        0.759259        0.596113        0        
C3        C        0.5        0.759259        0.596113        0        
C3        C        0.5625        0.759259        0.596113        0        
C3        C        0.625        0.759259        0.596113        0        
C3        C        0.6875        0.759259        0.596113        0        
C3        C        0.75        0.759259        0.596113        0        
C3        C        0.8125        0.759259        0.596113        0        
C3        C        0.875        0.759259        0.596113        0        
C3        C        0.9375        0.759259        0.596113        0        
C4        C        0.03125        0.703703        0.596113        0        
C4        C        0.09375        0.703703        0.596113        0        
C4        C        0.15625        0.703703        0.596113        0        
C4        C        0.21875        0.703703        0.596113        0        
C4        C        0.28125        0.703703        0.596113        0        
C4        C        0.34375        0.703703        0.596113        0        
C4        C        0.40625        0.703703        0.596113        0        
C4        C        0.46875        0.703703        0.596113        0        
C4        C        0.53125        0.703703        0.596113        0        
C4        C        0.59375        0.703703        0.596113        0        
C4        C        0.65625        0.703703        0.596113        0        
C4        C        0.71875        0.703703        0.596113        0        
C4        C        0.78125        0.703703        0.596113        0        
C4        C        0.84375        0.703703        0.596113        0        
C4        C        0.9062500000000001        0.703703        0.596113        0        
C4        C        0.9687500000000001        0.703703        0.596113        0        
C1        C        0.0        0.796297        0.596113        0        
C1        C        0.0625        0.796297        0.596113        0        
C1        C        0.125        0.796297        0.596113        0        
C1        C        0.1875        0.796297        0.596113        0        
C1        C        0.25        0.796297        0.596113        0        
C1        C        0.3125        0.796297        0.596113        0        
C1        C        0.375        0.796297        0.596113        0        
C1        C        0.4375        0.796297        0.596113        0        
C1        C        0.5        0.796297        0.596113        0        
C1        C        0.5625        0.796297        0.596113        0        
C1        C        0.625        0.796297        0.596113        0        
C1        C        0.6875        0.796297        0.596113        0        
C1        C        0.75        0.796297        0.596113        0        
C1        C        0.8125        0.796297        0.596113        0        
C1        C        0.875        0.796297        0.596113        0        
C1        C        0.9375        0.796297        0.596113        0        
C2        C        0.03125        0.851852        0.596113        0        
C2        C        0.09375        0.851852        0.596113        0        
C2        C        0.15625        0.851852        0.596113        0        
C2        C        0.21875        0.851852        0.596113        0        
C2        C        0.28125        0.851852        0.596113        0        
C2        C        0.34375        0.851852        0.596113        0        
C2        C        0.40625        0.851852        0.596113        0        
C2        C        0.46875        0.851852        0.596113        0        
C2        C        0.53125        0.851852        0.596113        0        
C2        C        0.59375        0.851852        0.596113        0        
C2        C        0.65625        0.851852        0.596113        0        
C2        C        0.71875        0.851852        0.596113        0        
C2        C        0.78125        0.851852        0.596113        0        
C2        C        0.84375        0.851852        0.596113        0        
C2        C        0.9062500000000001        0.851852        0.596113        0        
C2        C        0.9687500000000001        0.851852        0.596113        0        
C_FG        C        0.0        0.87037        0.596113        0.08        
C3        C        0.0625        0.87037        0.596113        0        
C3        C        0.125        0.87037        0.596113        0        
C3        C        0.1875        0.87037        0.596113        0        
C_FG        C        0.25        0.87037        0.596113        0.08        
C3        C        0.3125        0.87037        0.596113        0        
C3        C        0.375        0.87037        0.596113        0        
C3        C        0.4375        0.87037        0.596113        0        
C_FG        C        0.5        0.87037        0.596113        0.08        
C3        C        0.5625        0.87037        0.596113        0        
C3        C        0.625        0.87037        0.596113        0        
C3        C        0.6875        0.87037        0.596113        0        
C_FG        C        0.75        0.87037        0.596113        0.08        
C3        C        0.8125        0.87037        0.596113        0        
C3        C        0.875        0.87037        0.596113        0        
C3        C        0.9375        0.87037        0.596113        0        
C4        C        0.03125        0.814814        0.596113        0        
C4        C        0.09375        0.814814        0.596113        0        
C4        C        0.15625        0.814814        0.596113        0        
C4        C        0.21875        0.814814        0.596113        0        
C4        C        0.28125        0.814814        0.596113        0        
C4        C        0.34375        0.814814        0.596113        0        
C4        C        0.40625        0.814814        0.596113        0        
C4        C        0.46875        0.814814        0.596113        0        
C4        C        0.53125        0.814814        0.596113        0        
C4        C        0.59375        0.814814        0.596113        0        
C4        C        0.65625        0.814814        0.596113        0        
C4        C        0.71875        0.814814        0.596113        0        
C4        C        0.78125        0.814814        0.596113        0        
C4        C        0.84375        0.814814        0.596113        0        
C4        C        0.9062500000000001        0.814814        0.596113        0        
C4        C        0.9687500000000001        0.814814        0.596113        0        
C1        C        0.0        0.907408        0.596113        0        
C1        C        0.0625        0.907408        0.596113        0        
C1        C        0.125        0.907408        0.596113        0        
C1        C        0.1875        0.907408        0.596113        0        
C1        C        0.25        0.907408        0.596113        0        
C1        C        0.3125        0.907408        0.596113        0        
C1        C        0.375        0.907408        0.596113        0        
C1        C        0.4375        0.907408        0.596113        0        
C1        C        0.5        0.907408        0.596113        0        
C1        C        0.5625        0.907408        0.596113        0        
C1        C        0.625        0.907408        0.596113        0        
C1        C        0.6875        0.907408        0.596113        0        
C1        C        0.75        0.907408        0.596113        0        
C1        C        0.8125        0.907408        0.596113        0        
C1        C        0.875        0.907408        0.596113        0        
C1        C        0.9375        0.907408        0.596113        0        
C2        C        0.03125        0.962963        0.596113        0        
C2        C        0.09375        0.962963        0.596113        0        
C2        C        0.15625        0.962963        0.596113        0        
C2        C        0.21875        0.962963        0.596113        0        
C2        C        0.28125        0.962963        0.596113        0        
C2        C        0.34375        0.962963        0.596113        0        
C2        C        0.40625        0.962963        0.596113        0        
C2        C        0.46875        0.962963        0.596113        0        
C2        C        0.53125        0.962963        0.596113        0        
C2        C        0.59375        0.962963        0.596113        0        
C2        C        0.65625        0.962963        0.596113        0        
C2        C        0.71875        0.962963        0.596113        0        
C2        C        0.78125        0.962963        0.596113        0        
C2        C        0.84375        0.962963        0.596113        0        
C2        C        0.9062500000000001        0.962963        0.596113        0        
C2        C        0.9687500000000001        0.962963        0.596113        0        
C3        C        0.0        0.9814809999999999        0.596113        0        
C3        C        0.0625        0.9814809999999999        0.596113        0        
C3        C        0.125        0.9814809999999999        0.596113        0        
C3        C        0.1875        0.9814809999999999        0.596113        0        
C3        C        0.25        0.9814809999999999        0.596113        0        
C3        C        0.3125        0.9814809999999999        0.596113        0        
C3        C        0.375        0.9814809999999999        0.596113        0        
C3        C        0.4375        0.9814809999999999        0.596113        0        
C3        C        0.5        0.9814809999999999        0.596113        0        
C3        C        0.5625        0.9814809999999999        0.596113        0        
C3        C        0.625        0.9814809999999999        0.596113        0        
C3        C        0.6875        0.9814809999999999        0.596113        0        
C3        C        0.75        0.9814809999999999        0.596113        0        
C3        C        0.8125        0.9814809999999999        0.596113        0        
C3        C        0.875        0.9814809999999999        0.596113        0        
C3        C        0.9375        0.9814809999999999        0.596113        0        
C4        C        0.03125        0.925925        0.596113        0        
C4        C        0.09375        0.925925        0.596113        0        
C4        C        0.15625        0.925925        0.596113        0        
C4        C        0.21875        0.925925        0.596113        0        
C4        C        0.28125        0.925925        0.596113        0        
C4        C        0.34375        0.925925        0.596113        0        
C4        C        0.40625        0.925925        0.596113        0        
C4        C        0.46875        0.925925        0.596113        0        
C4        C        0.53125        0.925925        0.596113        0        
C4        C        0.59375        0.925925        0.596113        0        
C4        C        0.65625        0.925925        0.596113        0        
C4        C        0.71875        0.925925        0.596113        0        
C4        C        0.78125        0.925925        0.596113        0        
C4        C        0.84375        0.925925        0.596113        0        
C4        C        0.9062500000000001        0.925925        0.596113        0        
C4        C        0.9687500000000001        0.925925        0.596113        0        
C1        C        0.0        0.018519        0.668467        0        
C2        C        0.03125        0.074075        0.668467        0        
C3        C        0.0        0.092592        0.668467        0        
C4        C        0.03125        0.037037        0.668467        0        
C1        C        0.0        0.12963        0.668467        0        
C2        C        0.03125        0.185185        0.668467        0        
C3        C        0.0        0.203703        0.668467        0        
C4        C        0.03125        0.148148        0.668467        0        
C1        C        0.0        0.24074099999999998        0.668467        0        
C2        C        0.03125        0.296297        0.668467        0        
C3        C        0.0        0.314815        0.668467        0        
C4        C        0.03125        0.259259        0.668467        0        
C1        C        0.0        0.351852        0.668467        0        
C2        C        0.03125        0.407408        0.668467        0        
C3        C        0.0        0.42592500000000005        0.668467        0        
C4        C        0.03125        0.37037        0.668467        0        
C1        C        0.0        0.46296300000000007        0.668467        0        
C2        C        0.03125        0.518519        0.668467        0        
C3        C        0.0        0.537037        0.668467        0        
C4        C        0.03125        0.481481        0.668467        0        
C1        C        0.0        0.574075        0.668467        0        
C2        C        0.03125        0.62963        0.668467        0        
C3        C        0.0        0.648148        0.668467        0        
C4        C        0.03125        0.592592        0.668467        0        
C1        C        0.0625        0.018519        0.668467        0        
C2        C        0.09375        0.074075        0.668467        0        
C3        C        0.0625        0.092592        0.668467        0        
C4        C        0.09375        0.037037        0.668467        0        
C1        C        0.0625        0.12963        0.668467        0        
C2        C        0.09375        0.185185        0.668467        0        
C3        C        0.0625        0.203703        0.668467        0        
C4        C        0.09375        0.148148        0.668467        0        
C1        C        0.0625        0.24074099999999998        0.668467        0        
C2        C        0.09375        0.296297        0.668467        0        
C3        C        0.0625        0.314815        0.668467        0        
C4        C        0.09375        0.259259        0.668467        0        
C1        C        0.0625        0.351852        0.668467        0        
C2        C        0.09375        0.407408        0.668467        0        
C3        C        0.0625        0.42592500000000005        0.668467        0        
C4        C        0.09375        0.37037        0.668467        0        
C1        C        0.0625        0.46296300000000007        0.668467        0        
C2        C        0.09375        0.518519        0.668467        0        
C3        C        0.0625        0.537037        0.668467        0        
C4        C        0.09375        0.481481        0.668467        0        
C1        C        0.0625        0.574075        0.668467        0        
C2        C        0.09375        0.62963        0.668467        0        
C3        C        0.0625        0.648148        0.668467        0        
C4        C        0.09375        0.592592        0.668467        0        
C1        C        0.125        0.018519        0.668467        0        
C2        C        0.15625        0.074075        0.668467        0        
C3        C        0.125        0.092592        0.668467        0        
C4        C        0.15625        0.037037        0.668467        0        
C1        C        0.125        0.12963        0.668467        0        
C2        C        0.15625        0.185185        0.668467        0        
C3        C        0.125        0.203703        0.668467        0        
C4        C        0.15625        0.148148        0.668467        0        
C1        C        0.125        0.24074099999999998        0.668467        0        
C2        C        0.15625        0.296297        0.668467        0        
C3        C        0.125        0.314815        0.668467        0        
C4        C        0.15625        0.259259        0.668467        0        
C1        C        0.125        0.351852        0.668467        0        
C2        C        0.15625        0.407408        0.668467        0        
C3        C        0.125        0.42592500000000005        0.668467        0        
C4        C        0.15625        0.37037        0.668467        0        
C1        C        0.125        0.46296300000000007        0.668467        0        
C2        C        0.15625        0.518519        0.668467        0        
C3        C        0.125        0.537037        0.668467        0        
C4        C        0.15625        0.481481        0.668467        0        
C1        C        0.125        0.574075        0.668467        0        
C2        C        0.15625        0.62963        0.668467        0        
C3        C        0.125        0.648148        0.668467        0        
C4        C        0.15625        0.592592        0.668467        0        
C1        C        0.1875        0.018519        0.668467        0        
C2        C        0.21875        0.074075        0.668467        0        
C3        C        0.1875        0.092592        0.668467        0        
C4        C        0.21875        0.037037        0.668467        0        
C1        C        0.1875        0.12963        0.668467        0        
C2        C        0.21875        0.185185        0.668467        0        
C3        C        0.1875        0.203703        0.668467        0        
C4        C        0.21875        0.148148        0.668467        0        
C1        C        0.1875        0.24074099999999998        0.668467        0        
C2        C        0.21875        0.296297        0.668467        0        
C3        C        0.1875        0.314815        0.668467        0        
C4        C        0.21875        0.259259        0.668467        0        
C1        C        0.1875        0.351852        0.668467        0        
C2        C        0.21875        0.407408        0.668467        0        
C3        C        0.1875        0.42592500000000005        0.668467        0        
C4        C        0.21875        0.37037        0.668467        0        
C1        C        0.1875        0.46296300000000007        0.668467        0        
C2        C        0.21875        0.518519        0.668467        0        
C3        C        0.1875        0.537037        0.668467        0        
C4        C        0.21875        0.481481        0.668467        0        
C1        C        0.1875        0.574075        0.668467        0        
C2        C        0.21875        0.62963        0.668467        0        
C3        C        0.1875        0.648148        0.668467        0        
C4        C        0.21875        0.592592        0.668467        0        
C1        C        0.25        0.018519        0.668467        0        
C2        C        0.28125        0.074075        0.668467        0        
C3        C        0.25        0.092592        0.668467        0        
C4        C        0.28125        0.037037        0.668467        0        
C1        C        0.25        0.12963        0.668467        0        
C2        C        0.28125        0.185185        0.668467        0        
C3        C        0.25        0.203703        0.668467        0        
C4        C        0.28125        0.148148        0.668467        0        
C1        C        0.25        0.24074099999999998        0.668467        0        
C2        C        0.28125        0.296297        0.668467        0        
C3        C        0.25        0.314815        0.668467        0        
C4        C        0.28125        0.259259        0.668467        0        
C1        C        0.25        0.351852        0.668467        0        
C2        C        0.28125        0.407408        0.668467        0        
C3        C        0.25        0.42592500000000005        0.668467        0        
C4        C        0.28125        0.37037        0.668467        0        
C1        C        0.25        0.46296300000000007        0.668467        0        
C2        C        0.28125        0.518519        0.668467        0        
C3        C        0.25        0.537037        0.668467        0        
C4        C        0.28125        0.481481        0.668467        0        
C1        C        0.25        0.574075        0.668467        0        
C2        C        0.28125        0.62963        0.668467        0        
C3        C        0.25        0.648148        0.668467        0        
C4        C        0.28125        0.592592        0.668467        0        
C1        C        0.3125        0.018519        0.668467        0        
C2        C        0.34375        0.074075        0.668467        0        
C3        C        0.3125        0.092592        0.668467        0        
C4        C        0.34375        0.037037        0.668467        0        
C1        C        0.3125        0.12963        0.668467        0        
C2        C        0.34375        0.185185        0.668467        0        
C3        C        0.3125        0.203703        0.668467        0        
C4        C        0.34375        0.148148        0.668467        0        
C1        C        0.3125        0.24074099999999998        0.668467        0        
C2        C        0.34375        0.296297        0.668467        0        
C3        C        0.3125        0.314815        0.668467        0        
C4        C        0.34375        0.259259        0.668467        0        
C1        C        0.3125        0.351852        0.668467        0        
C2        C        0.34375        0.407408        0.668467        0        
C3        C        0.3125        0.42592500000000005        0.668467        0        
C4        C        0.34375        0.37037        0.668467        0        
C1        C        0.3125        0.46296300000000007        0.668467        0        
C2        C        0.34375        0.518519        0.668467        0        
C3        C        0.3125        0.537037        0.668467        0        
C4        C        0.34375        0.481481        0.668467        0        
C1        C        0.3125        0.574075        0.668467        0        
C2        C        0.34375        0.62963        0.668467        0        
C3        C        0.3125        0.648148        0.668467        0        
C4        C        0.34375        0.592592        0.668467        0        
C1        C        0.375        0.018519        0.668467        0        
C2        C        0.40625        0.074075        0.668467        0        
C3        C        0.375        0.092592        0.668467        0        
C4        C        0.40625        0.037037        0.668467        0        
C1        C        0.375        0.12963        0.668467        0        
C2        C        0.40625        0.185185        0.668467        0        
C3        C        0.375        0.203703        0.668467        0        
C4        C        0.40625        0.148148        0.668467        0        
C1        C        0.375        0.24074099999999998        0.668467        0        
C2        C        0.40625        0.296297        0.668467        0        
C3        C        0.375        0.314815        0.668467        0        
C4        C        0.40625        0.259259        0.668467        0        
C1        C        0.375        0.351852        0.668467        0        
C2        C        0.40625        0.407408        0.668467        0        
C3        C        0.375        0.42592500000000005        0.668467        0        
C4        C        0.40625        0.37037        0.668467        0        
C1        C        0.375        0.46296300000000007        0.668467        0        
C2        C        0.40625        0.518519        0.668467        0        
C3        C        0.375        0.537037        0.668467        0        
C4        C        0.40625        0.481481        0.668467        0        
C1        C        0.375        0.574075        0.668467        0        
C2        C        0.40625        0.62963        0.668467        0        
C3        C        0.375        0.648148        0.668467        0        
C4        C        0.40625        0.592592        0.668467        0        
C1        C        0.4375        0.018519        0.668467        0        
C2        C        0.46875        0.074075        0.668467        0        
C3        C        0.4375        0.092592        0.668467        0        
C4        C        0.46875        0.037037        0.668467        0        
C1        C        0.4375        0.12963        0.668467        0        
C2        C        0.46875        0.185185        0.668467        0        
C3        C        0.4375        0.203703        0.668467        0        
C4        C        0.46875        0.148148        0.668467        0        
C1        C        0.4375        0.24074099999999998        0.668467        0        
C2        C        0.46875        0.296297        0.668467        0        
C3        C        0.4375        0.314815        0.668467        0        
C4        C        0.46875        0.259259        0.668467        0        
C1        C        0.4375        0.351852        0.668467        0        
C2        C        0.46875        0.407408        0.668467        0        
C3        C        0.4375        0.42592500000000005        0.668467        0        
C4        C        0.46875        0.37037        0.668467        0        
C1        C        0.4375        0.46296300000000007        0.668467        0        
C2        C        0.46875        0.518519        0.668467        0        
C3        C        0.4375        0.537037        0.668467        0        
C4        C        0.46875        0.481481        0.668467        0        
C1        C        0.4375        0.574075        0.668467        0        
C2        C        0.46875        0.62963        0.668467        0        
C3        C        0.4375        0.648148        0.668467        0        
C4        C        0.46875        0.592592        0.668467        0        
C1        C        0.5        0.018519        0.668467        0        
C2        C        0.53125        0.074075        0.668467        0        
C3        C        0.5        0.092592        0.668467        0        
C4        C        0.53125        0.037037        0.668467        0        
C1        C        0.5        0.12963        0.668467        0        
C2        C        0.53125        0.185185        0.668467        0        
C3        C        0.5        0.203703        0.668467        0        
C4        C        0.53125        0.148148        0.668467        0        
C1        C        0.5        0.24074099999999998        0.668467        0        
C2        C        0.53125        0.296297        0.668467        0        
C3        C        0.5        0.314815        0.668467        0        
C4        C        0.53125        0.259259        0.668467        0        
C1        C        0.5        0.351852        0.668467        0        
C2        C        0.53125        0.407408        0.668467        0        
C3        C        0.5        0.42592500000000005        0.668467        0        
C4        C        0.53125        0.37037        0.668467        0        
C1        C        0.5        0.46296300000000007        0.668467        0        
C2        C        0.53125        0.518519        0.668467        0        
C3        C        0.5        0.537037        0.668467        0        
C4        C        0.53125        0.481481        0.668467        0        
C1        C        0.5        0.574075        0.668467        0        
C2        C        0.53125        0.62963        0.668467        0        
C3        C        0.5        0.648148        0.668467        0        
C4        C        0.53125        0.592592        0.668467        0        
C1        C        0.5625        0.018519        0.668467        0        
C2        C        0.59375        0.074075        0.668467        0        
C3        C        0.5625        0.092592        0.668467        0        
C4        C        0.59375        0.037037        0.668467        0        
C1        C        0.5625        0.12963        0.668467        0        
C2        C        0.59375        0.185185        0.668467        0        
C3        C        0.5625        0.203703        0.668467        0        
C4        C        0.59375        0.148148        0.668467        0        
C1        C        0.5625        0.24074099999999998        0.668467        0        
C2        C        0.59375        0.296297        0.668467        0        
C3        C        0.5625        0.314815        0.668467        0        
C4        C        0.59375        0.259259        0.668467        0        
C1        C        0.5625        0.351852        0.668467        0        
C2        C        0.59375        0.407408        0.668467        0        
C3        C        0.5625        0.42592500000000005        0.668467        0        
C4        C        0.59375        0.37037        0.668467        0        
C1        C        0.5625        0.46296300000000007        0.668467        0        
C2        C        0.59375        0.518519        0.668467        0        
C3        C        0.5625        0.537037        0.668467        0        
C4        C        0.59375        0.481481        0.668467        0        
C1        C        0.5625        0.574075        0.668467        0        
C2        C        0.59375        0.62963        0.668467        0        
C3        C        0.5625        0.648148        0.668467        0        
C4        C        0.59375        0.592592        0.668467        0        
C1        C        0.625        0.018519        0.668467        0        
C2        C        0.65625        0.074075        0.668467        0        
C3        C        0.625        0.092592        0.668467        0        
C4        C        0.65625        0.037037        0.668467        0        
C1        C        0.625        0.12963        0.668467        0        
C2        C        0.65625        0.185185        0.668467        0        
C3        C        0.625        0.203703        0.668467        0        
C4        C        0.65625        0.148148        0.668467        0        
C1        C        0.625        0.24074099999999998        0.668467        0        
C2        C        0.65625        0.296297        0.668467        0        
C3        C        0.625        0.314815        0.668467        0        
C4        C        0.65625        0.259259        0.668467        0        
C1        C        0.625        0.351852        0.668467        0        
C2        C        0.65625        0.407408        0.668467        0        
C3        C        0.625        0.42592500000000005        0.668467        0        
C4        C        0.65625        0.37037        0.668467        0        
C1        C        0.625        0.46296300000000007        0.668467        0        
C2        C        0.65625        0.518519        0.668467        0        
C3        C        0.625        0.537037        0.668467        0        
C4        C        0.65625        0.481481        0.668467        0        
C1        C        0.625        0.574075        0.668467        0        
C2        C        0.65625        0.62963        0.668467        0        
C3        C        0.625        0.648148        0.668467        0        
C4        C        0.65625        0.592592        0.668467        0        
C1        C        0.6875        0.018519        0.668467        0        
C2        C        0.71875        0.074075        0.668467        0        
C3        C        0.6875        0.092592        0.668467        0        
C4        C        0.71875        0.037037        0.668467        0        
C1        C        0.6875        0.12963        0.668467        0        
C2        C        0.71875        0.185185        0.668467        0        
C3        C        0.6875        0.203703        0.668467        0        
C4        C        0.71875        0.148148        0.668467        0        
C1        C        0.6875        0.24074099999999998        0.668467        0        
C2        C        0.71875        0.296297        0.668467        0        
C3        C        0.6875        0.314815        0.668467        0        
C4        C        0.71875        0.259259        0.668467        0        
C1        C        0.6875        0.351852        0.668467        0        
C2        C        0.71875        0.407408        0.668467        0        
C3        C        0.6875        0.42592500000000005        0.668467        0        
C4        C        0.71875        0.37037        0.668467        0        
C1        C        0.6875        0.46296300000000007        0.668467        0        
C2        C        0.71875        0.518519        0.668467        0        
C3        C        0.6875        0.537037        0.668467        0        
C4        C        0.71875        0.481481        0.668467        0        
C1        C        0.6875        0.574075        0.668467        0        
C2        C        0.71875        0.62963        0.668467        0        
C3        C        0.6875        0.648148        0.668467        0        
C4        C        0.71875        0.592592        0.668467        0        
C1        C        0.75        0.018519        0.668467        0        
C2        C        0.78125        0.074075        0.668467        0        
C3        C        0.75        0.092592        0.668467        0        
C4        C        0.78125        0.037037        0.668467        0        
C1        C        0.75        0.12963        0.668467        0        
C2        C        0.78125        0.185185        0.668467        0        
C3        C        0.75        0.203703        0.668467        0        
C4        C        0.78125        0.148148        0.668467        0        
C1        C        0.75        0.24074099999999998        0.668467        0        
C2        C        0.78125        0.296297        0.668467        0        
C3        C        0.75        0.314815        0.668467        0        
C4        C        0.78125        0.259259        0.668467        0        
C1        C        0.75        0.351852        0.668467        0        
C2        C        0.78125        0.407408        0.668467        0        
C3        C        0.75        0.42592500000000005        0.668467        0        
C4        C        0.78125        0.37037        0.668467        0        
C1        C        0.75        0.46296300000000007        0.668467        0        
C2        C        0.78125        0.518519        0.668467        0        
C3        C        0.75        0.537037        0.668467        0        
C4        C        0.78125        0.481481        0.668467        0        
C1        C        0.75        0.574075        0.668467        0        
C2        C        0.78125        0.62963        0.668467        0        
C3        C        0.75        0.648148        0.668467        0        
C4        C        0.78125        0.592592        0.668467        0        
C1        C        0.8125        0.018519        0.668467        0        
C2        C        0.84375        0.074075        0.668467        0        
C3        C        0.8125        0.092592        0.668467        0        
C4        C        0.84375        0.037037        0.668467        0        
C1        C        0.8125        0.12963        0.668467        0        
C2        C        0.84375        0.185185        0.668467        0        
C3        C        0.8125        0.203703        0.668467        0        
C4        C        0.84375        0.148148        0.668467        0        
C1        C        0.8125        0.24074099999999998        0.668467        0        
C2        C        0.84375        0.296297        0.668467        0        
C3        C        0.8125        0.314815        0.668467        0        
C4        C        0.84375        0.259259        0.668467        0        
C1        C        0.8125        0.351852        0.668467        0        
C2        C        0.84375        0.407408        0.668467        0        
C3        C        0.8125        0.42592500000000005        0.668467        0        
C4        C        0.84375        0.37037        0.668467        0        
C1        C        0.8125        0.46296300000000007        0.668467        0        
C2        C        0.84375        0.518519        0.668467        0        
C3        C        0.8125        0.537037        0.668467        0        
C4        C        0.84375        0.481481        0.668467        0        
C1        C        0.8125        0.574075        0.668467        0        
C2        C        0.84375        0.62963        0.668467        0        
C3        C        0.8125        0.648148        0.668467        0        
C4        C        0.84375        0.592592        0.668467        0        
C1        C        0.875        0.018519        0.668467        0        
C2        C        0.9062500000000001        0.074075        0.668467        0        
C3        C        0.875        0.092592        0.668467        0        
C4        C        0.9062500000000001        0.037037        0.668467        0        
C1        C        0.875        0.12963        0.668467        0        
C2        C        0.9062500000000001        0.185185        0.668467        0        
C3        C        0.875        0.203703        0.668467        0        
C4        C        0.9062500000000001        0.148148        0.668467        0        
C1        C        0.875        0.24074099999999998        0.668467        0        
C2        C        0.9062500000000001        0.296297        0.668467        0        
C3        C        0.875        0.314815        0.668467        0        
C4        C        0.9062500000000001        0.259259        0.668467        0        
C1        C        0.875        0.351852        0.668467        0        
C2        C        0.9062500000000001        0.407408        0.668467        0        
C3        C        0.875        0.42592500000000005        0.668467        0        
C4        C        0.9062500000000001        0.37037        0.668467        0        
C1        C        0.875        0.46296300000000007        0.668467        0        
C2        C        0.9062500000000001        0.518519        0.668467        0        
C3        C        0.875        0.537037        0.668467        0        
C4        C        0.9062500000000001        0.481481        0.668467        0        
C1        C        0.875        0.574075        0.668467        0        
C2        C        0.9062500000000001        0.62963        0.668467        0        
C3        C        0.875        0.648148        0.668467        0        
C4        C        0.9062500000000001        0.592592        0.668467        0        
C1        C        0.9375        0.018519        0.668467        0        
C2        C        0.9687500000000001        0.074075        0.668467        0        
C3        C        0.9375        0.092592        0.668467        0        
C4        C        0.9687500000000001        0.037037        0.668467        0        
C1        C        0.9375        0.12963        0.668467        0        
C2        C        0.9687500000000001        0.185185        0.668467        0        
C3        C        0.9375        0.203703        0.668467        0        
C4        C        0.9687500000000001        0.148148        0.668467        0        
C1        C        0.9375        0.24074099999999998        0.668467        0        
C2        C        0.9687500000000001        0.296297        0.668467        0        
C3        C        0.9375        0.314815        0.668467        0        
C4        C        0.9687500000000001        0.259259        0.668467        0        
C1        C        0.9375        0.351852        0.668467        0        
C2        C        0.9687500000000001        0.407408        0.668467        0        
C3        C        0.9375        0.42592500000000005        0.668467        0        
C4        C        0.9687500000000001        0.37037        0.668467        0        
C1        C        0.9375        0.46296300000000007        0.668467        0        
C2        C        0.9687500000000001        0.518519        0.668467        0        
C3        C        0.9375        0.537037        0.668467        0        
C4        C        0.9687500000000001        0.481481        0.668467        0        
C1        C        0.9375        0.574075        0.668467        0        
C2        C        0.9687500000000001        0.62963        0.668467        0        
C3        C        0.9375        0.648148        0.668467        0        
C4        C        0.9687500000000001        0.592592        0.668467        0        
C1        C        0.0        0.685186        0.668467        0        
C1        C        0.0625        0.685186        0.668467        0        
C1        C        0.125        0.685186        0.668467        0        
C1        C        0.1875        0.685186        0.668467        0        
C1        C        0.25        0.685186        0.668467        0        
C1        C        0.3125        0.685186        0.668467        0        
C1        C        0.375        0.685186        0.668467        0        
C1        C        0.4375        0.685186        0.668467        0        
C1        C        0.5        0.685186        0.668467        0        
C1        C        0.5625        0.685186        0.668467        0        
C1        C        0.625        0.685186        0.668467        0        
C1        C        0.6875        0.685186        0.668467        0        
C1        C        0.75        0.685186        0.668467        0        
C1        C        0.8125        0.685186        0.668467        0        
C1        C        0.875        0.685186        0.668467        0        
C1        C        0.9375        0.685186        0.668467        0        
C2        C        0.03125        0.740741        0.668467        0        
C2        C        0.09375        0.740741        0.668467        0        
C2        C        0.15625        0.740741        0.668467        0        
C2        C        0.21875        0.740741        0.668467        0        
C2        C        0.28125        0.740741        0.668467        0        
C2        C        0.34375        0.740741        0.668467        0        
C2        C        0.40625        0.740741        0.668467        0        
C2        C        0.46875        0.740741        0.668467        0        
C2        C        0.53125        0.740741        0.668467        0        
C2        C        0.59375        0.740741        0.668467        0        
C2        C        0.65625        0.740741        0.668467        0        
C2        C        0.71875        0.740741        0.668467        0        
C2        C        0.78125        0.740741        0.668467        0        
C2        C        0.84375        0.740741        0.668467        0        
C2        C        0.9062500000000001        0.740741        0.668467        0        
C2        C        0.9687500000000001        0.740741        0.668467        0        
C3        C        0.0        0.759259        0.668467        0        
C3        C        0.0625        0.759259        0.668467        0        
C3        C        0.125        0.759259        0.668467        0        
C3        C        0.1875        0.759259        0.668467        0        
C3        C        0.25        0.759259        0.668467        0        
C3        C        0.3125        0.759259        0.668467        0        
C3        C        0.375        0.759259        0.668467        0        
C3        C        0.4375        0.759259        0.668467        0        
C3        C        0.5        0.759259        0.668467        0        
C3        C        0.5625        0.759259        0.668467        0        
C3        C        0.625        0.759259        0.668467        0        
C3        C        0.6875        0.759259        0.668467        0        
C3        C        0.75        0.759259        0.668467        0        
C3        C        0.8125        0.759259        0.668467        0        
C3        C        0.875        0.759259        0.668467        0        
C3        C        0.9375        0.759259        0.668467        0        
C4        C        0.03125        0.703703        0.668467        0        
C4        C        0.09375        0.703703        0.668467        0        
C4        C        0.15625        0.703703        0.668467        0        
C4        C        0.21875        0.703703        0.668467        0        
C4        C        0.28125        0.703703        0.668467        0        
C4        C        0.34375        0.703703        0.668467        0        
C4        C        0.40625        0.703703        0.668467        0        
C4        C        0.46875        0.703703        0.668467        0        
C4        C        0.53125        0.703703        0.668467        0        
C4        C        0.59375        0.703703        0.668467        0        
C4        C        0.65625        0.703703        0.668467        0        
C4        C        0.71875        0.703703        0.668467        0        
C4        C        0.78125        0.703703        0.668467        0        
C4        C        0.84375        0.703703        0.668467        0        
C4        C        0.9062500000000001        0.703703        0.668467        0        
C4        C        0.9687500000000001        0.703703        0.668467        0        
C1        C        0.0        0.796297        0.668467        0        
C1        C        0.0625        0.796297        0.668467        0        
C1        C        0.125        0.796297        0.668467        0        
C1        C        0.1875        0.796297        0.668467        0        
C1        C        0.25        0.796297        0.668467        0        
C1        C        0.3125        0.796297        0.668467        0        
C1        C        0.375        0.796297        0.668467        0        
C1        C        0.4375        0.796297        0.668467        0        
C1        C        0.5        0.796297        0.668467        0        
C1        C        0.5625        0.796297        0.668467        0        
C1        C        0.625        0.796297        0.668467        0        
C1        C        0.6875        0.796297        0.668467        0        
C1        C        0.75        0.796297        0.668467        0        
C1        C        0.8125        0.796297        0.668467        0        
C1        C        0.875        0.796297        0.668467        0        
C1        C        0.9375        0.796297        0.668467        0        
C2        C        0.03125        0.851852        0.668467        0        
C2        C        0.09375        0.851852        0.668467        0        
C2        C        0.15625        0.851852        0.668467        0        
C2        C        0.21875        0.851852        0.668467        0        
C2        C        0.28125        0.851852        0.668467        0        
C2        C        0.34375        0.851852        0.668467        0        
C2        C        0.40625        0.851852        0.668467        0        
C2        C        0.46875        0.851852        0.668467        0        
C2        C        0.53125        0.851852        0.668467        0        
C2        C        0.59375        0.851852        0.668467        0        
C2        C        0.65625        0.851852        0.668467        0        
C2        C        0.71875        0.851852        0.668467        0        
C2        C        0.78125        0.851852        0.668467        0        
C2        C        0.84375        0.851852        0.668467        0        
C2        C        0.9062500000000001        0.851852        0.668467        0        
C2        C        0.9687500000000001        0.851852        0.668467        0        
C3        C        0.0        0.87037        0.668467        0        
C3        C        0.0625        0.87037        0.668467        0        
C3        C        0.125        0.87037        0.668467        0        
C3        C        0.1875        0.87037        0.668467        0        
C3        C        0.25        0.87037        0.668467        0        
C3        C        0.3125        0.87037        0.668467        0        
C3        C        0.375        0.87037        0.668467        0        
C3        C        0.4375        0.87037        0.668467        0        
C3        C        0.5        0.87037        0.668467        0        
C3        C        0.5625        0.87037        0.668467        0        
C3        C        0.625        0.87037        0.668467        0        
C3        C        0.6875        0.87037        0.668467        0        
C3        C        0.75        0.87037        0.668467        0        
C3        C        0.8125        0.87037        0.668467        0        
C3        C        0.875        0.87037        0.668467        0        
C3        C        0.9375        0.87037        0.668467        0        
C4        C        0.03125        0.814814        0.668467        0        
C4        C        0.09375        0.814814        0.668467        0        
C4        C        0.15625        0.814814        0.668467        0        
C4        C        0.21875        0.814814        0.668467        0        
C4        C        0.28125        0.814814        0.668467        0        
C4        C        0.34375        0.814814        0.668467        0        
C4        C        0.40625        0.814814        0.668467        0        
C4        C        0.46875        0.814814        0.668467        0        
C4        C        0.53125        0.814814        0.668467        0        
C4        C        0.59375        0.814814        0.668467        0        
C4        C        0.65625        0.814814        0.668467        0        
C4        C        0.71875        0.814814        0.668467        0        
C4        C        0.78125        0.814814        0.668467        0        
C4        C        0.84375        0.814814        0.668467        0        
C4        C        0.9062500000000001        0.814814        0.668467        0        
C4        C        0.9687500000000001        0.814814        0.668467        0        
C1        C        0.0        0.907408        0.668467        0        
C1        C        0.0625        0.907408        0.668467        0        
C1        C        0.125        0.907408        0.668467        0        
C1        C        0.1875        0.907408        0.668467        0        
C1        C        0.25        0.907408        0.668467        0        
C1        C        0.3125        0.907408        0.668467        0        
C1        C        0.375        0.907408        0.668467        0        
C1        C        0.4375        0.907408        0.668467        0        
C1        C        0.5        0.907408        0.668467        0        
C1        C        0.5625        0.907408        0.668467        0        
C1        C        0.625        0.907408        0.668467        0        
C1        C        0.6875        0.907408        0.668467        0        
C1        C        0.75        0.907408        0.668467        0        
C1        C        0.8125        0.907408        0.668467        0        
C1        C        0.875        0.907408        0.668467        0        
C1        C        0.9375        0.907408        0.668467        0        
C2        C        0.03125        0.962963        0.668467        0        
C2        C        0.09375        0.962963        0.668467        0        
C2        C        0.15625        0.962963        0.668467        0        
C2        C        0.21875        0.962963        0.668467        0        
C2        C        0.28125        0.962963        0.668467        0        
C2        C        0.34375        0.962963        0.668467        0        
C2        C        0.40625        0.962963        0.668467        0        
C2        C        0.46875        0.962963        0.668467        0        
C2        C        0.53125        0.962963        0.668467        0        
C2        C        0.59375        0.962963        0.668467        0        
C2        C        0.65625        0.962963        0.668467        0        
C2        C        0.71875        0.962963        0.668467        0        
C2        C        0.78125        0.962963        0.668467        0        
C2        C        0.84375        0.962963        0.668467        0        
C2        C        0.9062500000000001        0.962963        0.668467        0        
C2        C        0.9687500000000001        0.962963        0.668467        0        
C3        C        0.0        0.9814809999999999        0.668467        0        
C3        C        0.0625        0.9814809999999999        0.668467        0        
C3        C        0.125        0.9814809999999999        0.668467        0        
C3        C        0.1875        0.9814809999999999        0.668467        0        
C3        C        0.25        0.9814809999999999        0.668467        0        
C3        C        0.3125        0.9814809999999999        0.668467        0        
C3        C        0.375        0.9814809999999999        0.668467        0        
C3        C        0.4375        0.9814809999999999        0.668467        0        
C3        C        0.5        0.9814809999999999        0.668467        0        
C3        C        0.5625        0.9814809999999999        0.668467        0        
C3        C        0.625        0.9814809999999999        0.668467        0        
C3        C        0.6875        0.9814809999999999        0.668467        0        
C3        C        0.75        0.9814809999999999        0.668467        0        
C3        C        0.8125        0.9814809999999999        0.668467        0        
C3        C        0.875        0.9814809999999999        0.668467        0        
C3        C        0.9375        0.9814809999999999        0.668467        0        
C4        C        0.03125        0.925925        0.668467        0        
C4        C        0.09375        0.925925        0.668467        0        
C4        C        0.15625        0.925925        0.668467        0        
C4        C        0.21875        0.925925        0.668467        0        
C4        C        0.28125        0.925925        0.668467        0        
C4        C        0.34375        0.925925        0.668467        0        
C4        C        0.40625        0.925925        0.668467        0        
C4        C        0.46875        0.925925        0.668467        0        
C4        C        0.53125        0.925925        0.668467        0        
C4        C        0.59375        0.925925        0.668467        0        
C4        C        0.65625        0.925925        0.668467        0        
C4        C        0.71875        0.925925        0.668467        0        
C4        C        0.78125        0.925925        0.668467        0        
C4        C        0.84375        0.925925        0.668467        0        
C4        C        0.9062500000000001        0.925925        0.668467        0        
C4        C        0.9687500000000001        0.925925        0.668467        0        
C1        C        0.0        0.018519        0.7408210000000001        0        
C2        C        0.03125        0.074075        0.7408210000000001        0        
C3        C        0.0        0.092592        0.7408210000000001        0        
C4        C        0.03125        0.037037        0.7408210000000001        0        
C1        C        0.0        0.12963        0.7408210000000001        0        
C2        C        0.03125        0.185185        0.7408210000000001        0        
C3        C        0.0        0.203703        0.7408210000000001        0        
C4        C        0.03125        0.148148        0.7408210000000001        0        
C1        C        0.0        0.24074099999999998        0.7408210000000001        0        
C2        C        0.03125        0.296297        0.7408210000000001        0        
C3        C        0.0        0.314815        0.7408210000000001        0        
C4        C        0.03125        0.259259        0.7408210000000001        0        
C1        C        0.0        0.351852        0.7408210000000001        0        
C2        C        0.03125        0.407408        0.7408210000000001        0        
C3        C        0.0        0.42592500000000005        0.7408210000000001        0        
C4        C        0.03125        0.37037        0.7408210000000001        0        
C1        C        0.0        0.46296300000000007        0.7408210000000001        0        
C2        C        0.03125        0.518519        0.7408210000000001        0        
C3        C        0.0        0.537037        0.7408210000000001        0        
C4        C        0.03125        0.481481        0.7408210000000001        0        
C1        C        0.0        0.574075        0.7408210000000001        0        
C2        C        0.03125        0.62963        0.7408210000000001        0        
C3        C        0.0        0.648148        0.7408210000000001        0        
C4        C        0.03125        0.592592        0.7408210000000001        0        
C1        C        0.0625        0.018519        0.7408210000000001        0        
C2        C        0.09375        0.074075        0.7408210000000001        0        
C3        C        0.0625        0.092592        0.7408210000000001        0        
C4        C        0.09375        0.037037        0.7408210000000001        0        
C1        C        0.0625        0.12963        0.7408210000000001        0        
C2        C        0.09375        0.185185        0.7408210000000001        0        
C3        C        0.0625        0.203703        0.7408210000000001        0        
C4        C        0.09375        0.148148        0.7408210000000001        0        
C1        C        0.0625        0.24074099999999998        0.7408210000000001        0        
C2        C        0.09375        0.296297        0.7408210000000001        0        
C3        C        0.0625        0.314815        0.7408210000000001        0        
C4        C        0.09375        0.259259        0.7408210000000001        0        
C1        C        0.0625        0.351852        0.7408210000000001        0        
C2        C        0.09375        0.407408        0.7408210000000001        0        
C3        C        0.0625        0.42592500000000005        0.7408210000000001        0        
C4        C        0.09375        0.37037        0.7408210000000001        0        
C1        C        0.0625        0.46296300000000007        0.7408210000000001        0        
C2        C        0.09375        0.518519        0.7408210000000001        0        
C3        C        0.0625        0.537037        0.7408210000000001        0        
C4        C        0.09375        0.481481        0.7408210000000001        0        
C1        C        0.0625        0.574075        0.7408210000000001        0        
C2        C        0.09375        0.62963        0.7408210000000001        0        
C3        C        0.0625        0.648148        0.7408210000000001        0        
C4        C        0.09375        0.592592        0.7408210000000001        0        
C1        C        0.125        0.018519        0.7408210000000001        0        
C2        C        0.15625        0.074075        0.7408210000000001        0        
C3        C        0.125        0.092592        0.7408210000000001        0        
C4        C        0.15625        0.037037        0.7408210000000001        0        
C1        C        0.125        0.12963        0.7408210000000001        0        
C2        C        0.15625        0.185185        0.7408210000000001        0        
C3        C        0.125        0.203703        0.7408210000000001        0        
C4        C        0.15625        0.148148        0.7408210000000001        0        
C1        C        0.125        0.24074099999999998        0.7408210000000001        0        
C2        C        0.15625        0.296297        0.7408210000000001        0        
C3        C        0.125        0.314815        0.7408210000000001        0        
C4        C        0.15625        0.259259        0.7408210000000001        0        
C1        C        0.125        0.351852        0.7408210000000001        0        
C2        C        0.15625        0.407408        0.7408210000000001        0        
C3        C        0.125        0.42592500000000005        0.7408210000000001        0        
C4        C        0.15625        0.37037        0.7408210000000001        0        
C1        C        0.125        0.46296300000000007        0.7408210000000001        0        
C2        C        0.15625        0.518519        0.7408210000000001        0        
C3        C        0.125        0.537037        0.7408210000000001        0        
C4        C        0.15625        0.481481        0.7408210000000001        0        
C1        C        0.125        0.574075        0.7408210000000001        0        
C2        C        0.15625        0.62963        0.7408210000000001        0        
C3        C        0.125        0.648148        0.7408210000000001        0        
C4        C        0.15625        0.592592        0.7408210000000001        0        
C1        C        0.1875        0.018519        0.7408210000000001        0        
C2        C        0.21875        0.074075        0.7408210000000001        0        
C3        C        0.1875        0.092592        0.7408210000000001        0        
C4        C        0.21875        0.037037        0.7408210000000001        0        
C1        C        0.1875        0.12963        0.7408210000000001        0        
C2        C        0.21875        0.185185        0.7408210000000001        0        
C3        C        0.1875        0.203703        0.7408210000000001        0        
C4        C        0.21875        0.148148        0.7408210000000001        0        
C1        C        0.1875        0.24074099999999998        0.7408210000000001        0        
C2        C        0.21875        0.296297        0.7408210000000001        0        
C3        C        0.1875        0.314815        0.7408210000000001        0        
C4        C        0.21875        0.259259        0.7408210000000001        0        
C1        C        0.1875        0.351852        0.7408210000000001        0        
C2        C        0.21875        0.407408        0.7408210000000001        0        
C3        C        0.1875        0.42592500000000005        0.7408210000000001        0        
C4        C        0.21875        0.37037        0.7408210000000001        0        
C1        C        0.1875        0.46296300000000007        0.7408210000000001        0        
C2        C        0.21875        0.518519        0.7408210000000001        0        
C3        C        0.1875        0.537037        0.7408210000000001        0        
C4        C        0.21875        0.481481        0.7408210000000001        0        
C1        C        0.1875        0.574075        0.7408210000000001        0        
C2        C        0.21875        0.62963        0.7408210000000001        0        
C3        C        0.1875        0.648148        0.7408210000000001        0        
C4        C        0.21875        0.592592        0.7408210000000001        0        
C1        C        0.25        0.018519        0.7408210000000001        0        
C2        C        0.28125        0.074075        0.7408210000000001        0        
C3        C        0.25        0.092592        0.7408210000000001        0        
C4        C        0.28125        0.037037        0.7408210000000001        0        
C1        C        0.25        0.12963        0.7408210000000001        0        
C2        C        0.28125        0.185185        0.7408210000000001        0        
C3        C        0.25        0.203703        0.7408210000000001        0        
C4        C        0.28125        0.148148        0.7408210000000001        0        
C1        C        0.25        0.24074099999999998        0.7408210000000001        0        
C2        C        0.28125        0.296297        0.7408210000000001        0        
C3        C        0.25        0.314815        0.7408210000000001        0        
C4        C        0.28125        0.259259        0.7408210000000001        0        
C1        C        0.25        0.351852        0.7408210000000001        0        
C2        C        0.28125        0.407408        0.7408210000000001        0        
C3        C        0.25        0.42592500000000005        0.7408210000000001        0        
C4        C        0.28125        0.37037        0.7408210000000001        0        
C1        C        0.25        0.46296300000000007        0.7408210000000001        0        
C2        C        0.28125        0.518519        0.7408210000000001        0        
C3        C        0.25        0.537037        0.7408210000000001        0        
C4        C        0.28125        0.481481        0.7408210000000001        0        
C1        C        0.25        0.574075        0.7408210000000001        0        
C2        C        0.28125        0.62963        0.7408210000000001        0        
C3        C        0.25        0.648148        0.7408210000000001        0        
C4        C        0.28125        0.592592        0.7408210000000001        0        
C1        C        0.3125        0.018519        0.7408210000000001        0        
C2        C        0.34375        0.074075        0.7408210000000001        0        
C3        C        0.3125        0.092592        0.7408210000000001        0        
C4        C        0.34375        0.037037        0.7408210000000001        0        
C1        C        0.3125        0.12963        0.7408210000000001        0        
C2        C        0.34375        0.185185        0.7408210000000001        0        
C3        C        0.3125        0.203703        0.7408210000000001        0        
C4        C        0.34375        0.148148        0.7408210000000001        0        
C1        C        0.3125        0.24074099999999998        0.7408210000000001        0        
C2        C        0.34375        0.296297        0.7408210000000001        0        
C3        C        0.3125        0.314815        0.7408210000000001        0        
C4        C        0.34375        0.259259        0.7408210000000001        0        
C1        C        0.3125        0.351852        0.7408210000000001        0        
C2        C        0.34375        0.407408        0.7408210000000001        0        
C3        C        0.3125        0.42592500000000005        0.7408210000000001        0        
C4        C        0.34375        0.37037        0.7408210000000001        0        
C1        C        0.3125        0.46296300000000007        0.7408210000000001        0        
C2        C        0.34375        0.518519        0.7408210000000001        0        
C3        C        0.3125        0.537037        0.7408210000000001        0        
C4        C        0.34375        0.481481        0.7408210000000001        0        
C1        C        0.3125        0.574075        0.7408210000000001        0        
C2        C        0.34375        0.62963        0.7408210000000001        0        
C3        C        0.3125        0.648148        0.7408210000000001        0        
C4        C        0.34375        0.592592        0.7408210000000001        0        
C1        C        0.375        0.018519        0.7408210000000001        0        
C2        C        0.40625        0.074075        0.7408210000000001        0        
C3        C        0.375        0.092592        0.7408210000000001        0        
C4        C        0.40625        0.037037        0.7408210000000001        0        
C1        C        0.375        0.12963        0.7408210000000001        0        
C2        C        0.40625        0.185185        0.7408210000000001        0        
C3        C        0.375        0.203703        0.7408210000000001        0        
C4        C        0.40625        0.148148        0.7408210000000001        0        
C1        C        0.375        0.24074099999999998        0.7408210000000001        0        
C2        C        0.40625        0.296297        0.7408210000000001        0        
C3        C        0.375        0.314815        0.7408210000000001        0        
C4        C        0.40625        0.259259        0.7408210000000001        0        
C1        C        0.375        0.351852        0.7408210000000001        0        
C2        C        0.40625        0.407408        0.7408210000000001        0        
C3        C        0.375        0.42592500000000005        0.7408210000000001        0        
C4        C        0.40625        0.37037        0.7408210000000001        0        
C1        C        0.375        0.46296300000000007        0.7408210000000001        0        
C2        C        0.40625        0.518519        0.7408210000000001        0        
C3        C        0.375        0.537037        0.7408210000000001        0        
C4        C        0.40625        0.481481        0.7408210000000001        0        
C1        C        0.375        0.574075        0.7408210000000001        0        
C2        C        0.40625        0.62963        0.7408210000000001        0        
C3        C        0.375        0.648148        0.7408210000000001        0        
C4        C        0.40625        0.592592        0.7408210000000001        0        
C1        C        0.4375        0.018519        0.7408210000000001        0        
C2        C        0.46875        0.074075        0.7408210000000001        0        
C3        C        0.4375        0.092592        0.7408210000000001        0        
C4        C        0.46875        0.037037        0.7408210000000001        0        
C1        C        0.4375        0.12963        0.7408210000000001        0        
C2        C        0.46875        0.185185        0.7408210000000001        0        
C3        C        0.4375        0.203703        0.7408210000000001        0        
C4        C        0.46875        0.148148        0.7408210000000001        0        
C1        C        0.4375        0.24074099999999998        0.7408210000000001        0        
C2        C        0.46875        0.296297        0.7408210000000001        0        
C3        C        0.4375        0.314815        0.7408210000000001        0        
C4        C        0.46875        0.259259        0.7408210000000001        0        
C1        C        0.4375        0.351852        0.7408210000000001        0        
C2        C        0.46875        0.407408        0.7408210000000001        0        
C3        C        0.4375        0.42592500000000005        0.7408210000000001        0        
C4        C        0.46875        0.37037        0.7408210000000001        0        
C1        C        0.4375        0.46296300000000007        0.7408210000000001        0        
C2        C        0.46875        0.518519        0.7408210000000001        0        
C3        C        0.4375        0.537037        0.7408210000000001        0        
C4        C        0.46875        0.481481        0.7408210000000001        0        
C1        C        0.4375        0.574075        0.7408210000000001        0        
C2        C        0.46875        0.62963        0.7408210000000001        0        
C3        C        0.4375        0.648148        0.7408210000000001        0        
C4        C        0.46875        0.592592        0.7408210000000001        0        
C1        C        0.5        0.018519        0.7408210000000001        0        
C2        C        0.53125        0.074075        0.7408210000000001        0        
C3        C        0.5        0.092592        0.7408210000000001        0        
C4        C        0.53125        0.037037        0.7408210000000001        0        
C1        C        0.5        0.12963        0.7408210000000001        0        
C2        C        0.53125        0.185185        0.7408210000000001        0        
C3        C        0.5        0.203703        0.7408210000000001        0        
C4        C        0.53125        0.148148        0.7408210000000001        0        
C1        C        0.5        0.24074099999999998        0.7408210000000001        0        
C2        C        0.53125        0.296297        0.7408210000000001        0        
C3        C        0.5        0.314815        0.7408210000000001        0        
C4        C        0.53125        0.259259        0.7408210000000001        0        
C1        C        0.5        0.351852        0.7408210000000001        0        
C2        C        0.53125        0.407408        0.7408210000000001        0        
C3        C        0.5        0.42592500000000005        0.7408210000000001        0        
C4        C        0.53125        0.37037        0.7408210000000001        0        
C1        C        0.5        0.46296300000000007        0.7408210000000001        0        
C2        C        0.53125        0.518519        0.7408210000000001        0        
C3        C        0.5        0.537037        0.7408210000000001        0        
C4        C        0.53125        0.481481        0.7408210000000001        0        
C1        C        0.5        0.574075        0.7408210000000001        0        
C2        C        0.53125        0.62963        0.7408210000000001        0        
C3        C        0.5        0.648148        0.7408210000000001        0        
C4        C        0.53125        0.592592        0.7408210000000001        0        
C1        C        0.5625        0.018519        0.7408210000000001        0        
C2        C        0.59375        0.074075        0.7408210000000001        0        
C3        C        0.5625        0.092592        0.7408210000000001        0        
C4        C        0.59375        0.037037        0.7408210000000001        0        
C1        C        0.5625        0.12963        0.7408210000000001        0        
C2        C        0.59375        0.185185        0.7408210000000001        0        
C3        C        0.5625        0.203703        0.7408210000000001        0        
C4        C        0.59375        0.148148        0.7408210000000001        0        
C1        C        0.5625        0.24074099999999998        0.7408210000000001        0        
C2        C        0.59375        0.296297        0.7408210000000001        0        
C3        C        0.5625        0.314815        0.7408210000000001        0        
C4        C        0.59375        0.259259        0.7408210000000001        0        
C1        C        0.5625        0.351852        0.7408210000000001        0        
C2        C        0.59375        0.407408        0.7408210000000001        0        
C3        C        0.5625        0.42592500000000005        0.7408210000000001        0        
C4        C        0.59375        0.37037        0.7408210000000001        0        
C1        C        0.5625        0.46296300000000007        0.7408210000000001        0        
C2        C        0.59375        0.518519        0.7408210000000001        0        
C3        C        0.5625        0.537037        0.7408210000000001        0        
C4        C        0.59375        0.481481        0.7408210000000001        0        
C1        C        0.5625        0.574075        0.7408210000000001        0        
C2        C        0.59375        0.62963        0.7408210000000001        0        
C3        C        0.5625        0.648148        0.7408210000000001        0        
C4        C        0.59375        0.592592        0.7408210000000001        0        
C1        C        0.625        0.018519        0.7408210000000001        0        
C2        C        0.65625        0.074075        0.7408210000000001        0        
C3        C        0.625        0.092592        0.7408210000000001        0        
C4        C        0.65625        0.037037        0.7408210000000001        0        
C1        C        0.625        0.12963        0.7408210000000001        0        
C2        C        0.65625        0.185185        0.7408210000000001        0        
C3        C        0.625        0.203703        0.7408210000000001        0        
C4        C        0.65625        0.148148        0.7408210000000001        0        
C1        C        0.625        0.24074099999999998        0.7408210000000001        0        
C2        C        0.65625        0.296297        0.7408210000000001        0        
C3        C        0.625        0.314815        0.7408210000000001        0        
C4        C        0.65625        0.259259        0.7408210000000001        0        
C1        C        0.625        0.351852        0.7408210000000001        0        
C2        C        0.65625        0.407408        0.7408210000000001        0        
C3        C        0.625        0.42592500000000005        0.7408210000000001        0        
C4        C        0.65625        0.37037        0.7408210000000001        0        
C1        C        0.625        0.46296300000000007        0.7408210000000001        0        
C2        C        0.65625        0.518519        0.7408210000000001        0        
C3        C        0.625        0.537037        0.7408210000000001        0        
C4        C        0.65625        0.481481        0.7408210000000001        0        
C1        C        0.625        0.574075        0.7408210000000001        0        
C2        C        0.65625        0.62963        0.7408210000000001        0        
C3        C        0.625        0.648148        0.7408210000000001        0        
C4        C        0.65625        0.592592        0.7408210000000001        0        
C1        C        0.6875        0.018519        0.7408210000000001        0        
C2        C        0.71875        0.074075        0.7408210000000001        0        
C3        C        0.6875        0.092592        0.7408210000000001        0        
C4        C        0.71875        0.037037        0.7408210000000001        0        
C1        C        0.6875        0.12963        0.7408210000000001        0        
C2        C        0.71875        0.185185        0.7408210000000001        0        
C3        C        0.6875        0.203703        0.7408210000000001        0        
C4        C        0.71875        0.148148        0.7408210000000001        0        
C1        C        0.6875        0.24074099999999998        0.7408210000000001        0        
C2        C        0.71875        0.296297        0.7408210000000001        0        
C3        C        0.6875        0.314815        0.7408210000000001        0        
C4        C        0.71875        0.259259        0.7408210000000001        0        
C1        C        0.6875        0.351852        0.7408210000000001        0        
C2        C        0.71875        0.407408        0.7408210000000001        0        
C3        C        0.6875        0.42592500000000005        0.7408210000000001        0        
C4        C        0.71875        0.37037        0.7408210000000001        0        
C1        C        0.6875        0.46296300000000007        0.7408210000000001        0        
C2        C        0.71875        0.518519        0.7408210000000001        0        
C3        C        0.6875        0.537037        0.7408210000000001        0        
C4        C        0.71875        0.481481        0.7408210000000001        0        
C1        C        0.6875        0.574075        0.7408210000000001        0        
C2        C        0.71875        0.62963        0.7408210000000001        0        
C3        C        0.6875        0.648148        0.7408210000000001        0        
C4        C        0.71875        0.592592        0.7408210000000001        0        
C1        C        0.75        0.018519        0.7408210000000001        0        
C2        C        0.78125        0.074075        0.7408210000000001        0        
C3        C        0.75        0.092592        0.7408210000000001        0        
C4        C        0.78125        0.037037        0.7408210000000001        0        
C1        C        0.75        0.12963        0.7408210000000001        0        
C2        C        0.78125        0.185185        0.7408210000000001        0        
C3        C        0.75        0.203703        0.7408210000000001        0        
C4        C        0.78125        0.148148        0.7408210000000001        0        
C1        C        0.75        0.24074099999999998        0.7408210000000001        0        
C2        C        0.78125        0.296297        0.7408210000000001        0        
C3        C        0.75        0.314815        0.7408210000000001        0        
C4        C        0.78125        0.259259        0.7408210000000001        0        
C1        C        0.75        0.351852        0.7408210000000001        0        
C2        C        0.78125        0.407408        0.7408210000000001        0        
C3        C        0.75        0.42592500000000005        0.7408210000000001        0        
C4        C        0.78125        0.37037        0.7408210000000001        0        
C1        C        0.75        0.46296300000000007        0.7408210000000001        0        
C2        C        0.78125        0.518519        0.7408210000000001        0        
C3        C        0.75        0.537037        0.7408210000000001        0        
C4        C        0.78125        0.481481        0.7408210000000001        0        
C1        C        0.75        0.574075        0.7408210000000001        0        
C2        C        0.78125        0.62963        0.7408210000000001        0        
C3        C        0.75        0.648148        0.7408210000000001        0        
C4        C        0.78125        0.592592        0.7408210000000001        0        
C1        C        0.8125        0.018519        0.7408210000000001        0        
C2        C        0.84375        0.074075        0.7408210000000001        0        
C3        C        0.8125        0.092592        0.7408210000000001        0        
C4        C        0.84375        0.037037        0.7408210000000001        0        
C1        C        0.8125        0.12963        0.7408210000000001        0        
C2        C        0.84375        0.185185        0.7408210000000001        0        
C3        C        0.8125        0.203703        0.7408210000000001        0        
C4        C        0.84375        0.148148        0.7408210000000001        0        
C1        C        0.8125        0.24074099999999998        0.7408210000000001        0        
C2        C        0.84375        0.296297        0.7408210000000001        0        
C3        C        0.8125        0.314815        0.7408210000000001        0        
C4        C        0.84375        0.259259        0.7408210000000001        0        
C1        C        0.8125        0.351852        0.7408210000000001        0        
C2        C        0.84375        0.407408        0.7408210000000001        0        
C3        C        0.8125        0.42592500000000005        0.7408210000000001        0        
C4        C        0.84375        0.37037        0.7408210000000001        0        
C1        C        0.8125        0.46296300000000007        0.7408210000000001        0        
C2        C        0.84375        0.518519        0.7408210000000001        0        
C3        C        0.8125        0.537037        0.7408210000000001        0        
C4        C        0.84375        0.481481        0.7408210000000001        0        
C1        C        0.8125        0.574075        0.7408210000000001        0        
C2        C        0.84375        0.62963        0.7408210000000001        0        
C3        C        0.8125        0.648148        0.7408210000000001        0        
C4        C        0.84375        0.592592        0.7408210000000001        0        
C1        C        0.875        0.018519        0.7408210000000001        0        
C2        C        0.9062500000000001        0.074075        0.7408210000000001        0        
C3        C        0.875        0.092592        0.7408210000000001        0        
C4        C        0.9062500000000001        0.037037        0.7408210000000001        0        
C1        C        0.875        0.12963        0.7408210000000001        0        
C2        C        0.9062500000000001        0.185185        0.7408210000000001        0        
C3        C        0.875        0.203703        0.7408210000000001        0        
C4        C        0.9062500000000001        0.148148        0.7408210000000001        0        
C1        C        0.875        0.24074099999999998        0.7408210000000001        0        
C2        C        0.9062500000000001        0.296297        0.7408210000000001        0        
C3        C        0.875        0.314815        0.7408210000000001        0        
C4        C        0.9062500000000001        0.259259        0.7408210000000001        0        
C1        C        0.875        0.351852        0.7408210000000001        0        
C2        C        0.9062500000000001        0.407408        0.7408210000000001        0        
C3        C        0.875        0.42592500000000005        0.7408210000000001        0        
C4        C        0.9062500000000001        0.37037        0.7408210000000001        0        
C1        C        0.875        0.46296300000000007        0.7408210000000001        0        
C2        C        0.9062500000000001        0.518519        0.7408210000000001        0        
C3        C        0.875        0.537037        0.7408210000000001        0        
C4        C        0.9062500000000001        0.481481        0.7408210000000001        0        
C1        C        0.875        0.574075        0.7408210000000001        0        
C2        C        0.9062500000000001        0.62963        0.7408210000000001        0        
C3        C        0.875        0.648148        0.7408210000000001        0        
C4        C        0.9062500000000001        0.592592        0.7408210000000001        0        
C1        C        0.9375        0.018519        0.7408210000000001        0        
C2        C        0.9687500000000001        0.074075        0.7408210000000001        0        
C3        C        0.9375        0.092592        0.7408210000000001        0        
C4        C        0.9687500000000001        0.037037        0.7408210000000001        0        
C1        C        0.9375        0.12963        0.7408210000000001        0        
C2        C        0.9687500000000001        0.185185        0.7408210000000001        0        
C3        C        0.9375        0.203703        0.7408210000000001        0        
C4        C        0.9687500000000001        0.148148        0.7408210000000001        0        
C1        C        0.9375        0.24074099999999998        0.7408210000000001        0        
C2        C        0.9687500000000001        0.296297        0.7408210000000001        0        
C3        C        0.9375        0.314815        0.7408210000000001        0        
C4        C        0.9687500000000001        0.259259        0.7408210000000001        0        
C1        C        0.9375        0.351852        0.7408210000000001        0        
C2        C        0.9687500000000001        0.407408        0.7408210000000001        0        
C3        C        0.9375        0.42592500000000005        0.7408210000000001        0        
C4        C        0.9687500000000001        0.37037        0.7408210000000001        0        
C1        C        0.9375        0.46296300000000007        0.7408210000000001        0        
C2        C        0.9687500000000001        0.518519        0.7408210000000001        0        
C3        C        0.9375        0.537037        0.7408210000000001        0        
C4        C        0.9687500000000001        0.481481        0.7408210000000001        0        
C1        C        0.9375        0.574075        0.7408210000000001        0        
C2        C        0.9687500000000001        0.62963        0.7408210000000001        0        
C3        C        0.9375        0.648148        0.7408210000000001        0        
C4        C        0.9687500000000001        0.592592        0.7408210000000001        0        
C1        C        0.0        0.685186        0.7408210000000001        0        
C1        C        0.0625        0.685186        0.7408210000000001        0        
C1        C        0.125        0.685186        0.7408210000000001        0        
C1        C        0.1875        0.685186        0.7408210000000001        0        
C1        C        0.25        0.685186        0.7408210000000001        0        
C1        C        0.3125        0.685186        0.7408210000000001        0        
C1        C        0.375        0.685186        0.7408210000000001        0        
C1        C        0.4375        0.685186        0.7408210000000001        0        
C1        C        0.5        0.685186        0.7408210000000001        0        
C1        C        0.5625        0.685186        0.7408210000000001        0        
C1        C        0.625        0.685186        0.7408210000000001        0        
C1        C        0.6875        0.685186        0.7408210000000001        0        
C1        C        0.75        0.685186        0.7408210000000001        0        
C1        C        0.8125        0.685186        0.7408210000000001        0        
C1        C        0.875        0.685186        0.7408210000000001        0        
C1        C        0.9375        0.685186        0.7408210000000001        0        
C2        C        0.03125        0.740741        0.7408210000000001        0        
C2        C        0.09375        0.740741        0.7408210000000001        0        
C2        C        0.15625        0.740741        0.7408210000000001        0        
C2        C        0.21875        0.740741        0.7408210000000001        0        
C2        C        0.28125        0.740741        0.7408210000000001        0        
C2        C        0.34375        0.740741        0.7408210000000001        0        
C2        C        0.40625        0.740741        0.7408210000000001        0        
C2        C        0.46875        0.740741        0.7408210000000001        0        
C2        C        0.53125        0.740741        0.7408210000000001        0        
C2        C        0.59375        0.740741        0.7408210000000001        0        
C2        C        0.65625        0.740741        0.7408210000000001        0        
C2        C        0.71875        0.740741        0.7408210000000001        0        
C2        C        0.78125        0.740741        0.7408210000000001        0        
C2        C        0.84375        0.740741        0.7408210000000001        0        
C2        C        0.9062500000000001        0.740741        0.7408210000000001        0        
C2        C        0.9687500000000001        0.740741        0.7408210000000001        0        
C3        C        0.0        0.759259        0.7408210000000001        0        
C3        C        0.0625        0.759259        0.7408210000000001        0        
C3        C        0.125        0.759259        0.7408210000000001        0        
C3        C        0.1875        0.759259        0.7408210000000001        0        
C3        C        0.25        0.759259        0.7408210000000001        0        
C3        C        0.3125        0.759259        0.7408210000000001        0        
C3        C        0.375        0.759259        0.7408210000000001        0        
C3        C        0.4375        0.759259        0.7408210000000001        0        
C3        C        0.5        0.759259        0.7408210000000001        0        
C3        C        0.5625        0.759259        0.7408210000000001        0        
C3        C        0.625        0.759259        0.7408210000000001        0        
C3        C        0.6875        0.759259        0.7408210000000001        0        
C3        C        0.75        0.759259        0.7408210000000001        0        
C3        C        0.8125        0.759259        0.7408210000000001        0        
C3        C        0.875        0.759259        0.7408210000000001        0        
C3        C        0.9375        0.759259        0.7408210000000001        0        
C4        C        0.03125        0.703703        0.7408210000000001        0        
C4        C        0.09375        0.703703        0.7408210000000001        0        
C4        C        0.15625        0.703703        0.7408210000000001        0        
C4        C        0.21875        0.703703        0.7408210000000001        0        
C4        C        0.28125        0.703703        0.7408210000000001        0        
C4        C        0.34375        0.703703        0.7408210000000001        0        
C4        C        0.40625        0.703703        0.7408210000000001        0        
C4        C        0.46875        0.703703        0.7408210000000001        0        
C4        C        0.53125        0.703703        0.7408210000000001        0        
C4        C        0.59375        0.703703        0.7408210000000001        0        
C4        C        0.65625        0.703703        0.7408210000000001        0        
C4        C        0.71875        0.703703        0.7408210000000001        0        
C4        C        0.78125        0.703703        0.7408210000000001        0        
C4        C        0.84375        0.703703        0.7408210000000001        0        
C4        C        0.9062500000000001        0.703703        0.7408210000000001        0        
C4        C        0.9687500000000001        0.703703        0.7408210000000001        0        
C1        C        0.0        0.796297        0.7408210000000001        0        
C1        C        0.0625        0.796297        0.7408210000000001        0        
C1        C        0.125        0.796297        0.7408210000000001        0        
C1        C        0.1875        0.796297        0.7408210000000001        0        
C1        C        0.25        0.796297        0.7408210000000001        0        
C1        C        0.3125        0.796297        0.7408210000000001        0        
C1        C        0.375        0.796297        0.7408210000000001        0        
C1        C        0.4375        0.796297        0.7408210000000001        0        
C1        C        0.5        0.796297        0.7408210000000001        0        
C1        C        0.5625        0.796297        0.7408210000000001        0        
C1        C        0.625        0.796297        0.7408210000000001        0        
C1        C        0.6875        0.796297        0.7408210000000001        0        
C1        C        0.75        0.796297        0.7408210000000001        0        
C1        C        0.8125        0.796297        0.7408210000000001        0        
C1        C        0.875        0.796297        0.7408210000000001        0        
C1        C        0.9375        0.796297        0.7408210000000001        0        
C2        C        0.03125        0.851852        0.7408210000000001        0        
C2        C        0.09375        0.851852        0.7408210000000001        0        
C2        C        0.15625        0.851852        0.7408210000000001        0        
C2        C        0.21875        0.851852        0.7408210000000001        0        
C2        C        0.28125        0.851852        0.7408210000000001        0        
C2        C        0.34375        0.851852        0.7408210000000001        0        
C2        C        0.40625        0.851852        0.7408210000000001        0        
C2        C        0.46875        0.851852        0.7408210000000001        0        
C2        C        0.53125        0.851852        0.7408210000000001        0        
C2        C        0.59375        0.851852        0.7408210000000001        0        
C2        C        0.65625        0.851852        0.7408210000000001        0        
C2        C        0.71875        0.851852        0.7408210000000001        0        
C2        C        0.78125        0.851852        0.7408210000000001        0        
C2        C        0.84375        0.851852        0.7408210000000001        0        
C2        C        0.9062500000000001        0.851852        0.7408210000000001        0        
C2        C        0.9687500000000001        0.851852        0.7408210000000001        0        
C3        C        0.0        0.87037        0.7408210000000001        0        
C3        C        0.0625        0.87037        0.7408210000000001        0        
C3        C        0.125        0.87037        0.7408210000000001        0        
C3        C        0.1875        0.87037        0.7408210000000001        0        
C3        C        0.25        0.87037        0.7408210000000001        0        
C3        C        0.3125        0.87037        0.7408210000000001        0        
C3        C        0.375        0.87037        0.7408210000000001        0        
C3        C        0.4375        0.87037        0.7408210000000001        0        
C3        C        0.5        0.87037        0.7408210000000001        0        
C3        C        0.5625        0.87037        0.7408210000000001        0        
C3        C        0.625        0.87037        0.7408210000000001        0        
C3        C        0.6875        0.87037        0.7408210000000001        0        
C3        C        0.75        0.87037        0.7408210000000001        0        
C3        C        0.8125        0.87037        0.7408210000000001        0        
C3        C        0.875        0.87037        0.7408210000000001        0        
C3        C        0.9375        0.87037        0.7408210000000001        0        
C4        C        0.03125        0.814814        0.7408210000000001        0        
C4        C        0.09375        0.814814        0.7408210000000001        0        
C4        C        0.15625        0.814814        0.7408210000000001        0        
C4        C        0.21875        0.814814        0.7408210000000001        0        
C4        C        0.28125        0.814814        0.7408210000000001        0        
C4        C        0.34375        0.814814        0.7408210000000001        0        
C4        C        0.40625        0.814814        0.7408210000000001        0        
C4        C        0.46875        0.814814        0.7408210000000001        0        
C4        C        0.53125        0.814814        0.7408210000000001        0        
C4        C        0.59375        0.814814        0.7408210000000001        0        
C4        C        0.65625        0.814814        0.7408210000000001        0        
C4        C        0.71875        0.814814        0.7408210000000001        0        
C4        C        0.78125        0.814814        0.7408210000000001        0        
C4        C        0.84375        0.814814        0.7408210000000001        0        
C4        C        0.9062500000000001        0.814814        0.7408210000000001        0        
C4        C        0.9687500000000001        0.814814        0.7408210000000001        0        
C1        C        0.0        0.907408        0.7408210000000001        0        
C1        C        0.0625        0.907408        0.7408210000000001        0        
C1        C        0.125        0.907408        0.7408210000000001        0        
C1        C        0.1875        0.907408        0.7408210000000001        0        
C1        C        0.25        0.907408        0.7408210000000001        0        
C1        C        0.3125        0.907408        0.7408210000000001        0        
C1        C        0.375        0.907408        0.7408210000000001        0        
C1        C        0.4375        0.907408        0.7408210000000001        0        
C1        C        0.5        0.907408        0.7408210000000001        0        
C1        C        0.5625        0.907408        0.7408210000000001        0        
C1        C        0.625        0.907408        0.7408210000000001        0        
C1        C        0.6875        0.907408        0.7408210000000001        0        
C1        C        0.75        0.907408        0.7408210000000001        0        
C1        C        0.8125        0.907408        0.7408210000000001        0        
C1        C        0.875        0.907408        0.7408210000000001        0        
C1        C        0.9375        0.907408        0.7408210000000001        0        
C2        C        0.03125        0.962963        0.7408210000000001        0        
C2        C        0.09375        0.962963        0.7408210000000001        0        
C2        C        0.15625        0.962963        0.7408210000000001        0        
C2        C        0.21875        0.962963        0.7408210000000001        0        
C2        C        0.28125        0.962963        0.7408210000000001        0        
C2        C        0.34375        0.962963        0.7408210000000001        0        
C2        C        0.40625        0.962963        0.7408210000000001        0        
C2        C        0.46875        0.962963        0.7408210000000001        0        
C2        C        0.53125        0.962963        0.7408210000000001        0        
C2        C        0.59375        0.962963        0.7408210000000001        0        
C2        C        0.65625        0.962963        0.7408210000000001        0        
C2        C        0.71875        0.962963        0.7408210000000001        0        
C2        C        0.78125        0.962963        0.7408210000000001        0        
C2        C        0.84375        0.962963        0.7408210000000001        0        
C2        C        0.9062500000000001        0.962963        0.7408210000000001        0        
C2        C        0.9687500000000001        0.962963        0.7408210000000001        0        
C3        C        0.0        0.9814809999999999        0.7408210000000001        0        
C3        C        0.0625        0.9814809999999999        0.7408210000000001        0        
C3        C        0.125        0.9814809999999999        0.7408210000000001        0        
C3        C        0.1875        0.9814809999999999        0.7408210000000001        0        
C3        C        0.25        0.9814809999999999        0.7408210000000001        0        
C3        C        0.3125        0.9814809999999999        0.7408210000000001        0        
C3        C        0.375        0.9814809999999999        0.7408210000000001        0        
C3        C        0.4375        0.9814809999999999        0.7408210000000001        0        
C3        C        0.5        0.9814809999999999        0.7408210000000001        0        
C3        C        0.5625        0.9814809999999999        0.7408210000000001        0        
C3        C        0.625        0.9814809999999999        0.7408210000000001        0        
C3        C        0.6875        0.9814809999999999        0.7408210000000001        0        
C3        C        0.75        0.9814809999999999        0.7408210000000001        0        
C3        C        0.8125        0.9814809999999999        0.7408210000000001        0        
C3        C        0.875        0.9814809999999999        0.7408210000000001        0        
C3        C        0.9375        0.9814809999999999        0.7408210000000001        0        
C4        C        0.03125        0.925925        0.7408210000000001        0        
C4        C        0.09375        0.925925        0.7408210000000001        0        
C4        C        0.15625        0.925925        0.7408210000000001        0        
C4        C        0.21875        0.925925        0.7408210000000001        0        
C4        C        0.28125        0.925925        0.7408210000000001        0        
C4        C        0.34375        0.925925        0.7408210000000001        0        
C4        C        0.40625        0.925925        0.7408210000000001        0        
C4        C        0.46875        0.925925        0.7408210000000001        0        
C4        C        0.53125        0.925925        0.7408210000000001        0        
C4        C        0.59375        0.925925        0.7408210000000001        0        
C4        C        0.65625        0.925925        0.7408210000000001        0        
C4        C        0.71875        0.925925        0.7408210000000001        0        
C4        C        0.78125        0.925925        0.7408210000000001        0        
C4        C        0.84375        0.925925        0.7408210000000001        0        
C4        C        0.9062500000000001        0.925925        0.7408210000000001        0        
C4        C        0.9687500000000001        0.925925        0.7408210000000001        0        
C_COOH        C        0.0        0.018519        0.4367170626349892        0.55        
C_COOH        C        0.0        0.203703        0.4367170626349892        0.55        
C_COOH        C        0.0        0.351852        0.4367170626349892        0.55        
C_COOH        C        0.0        0.537037        0.4367170626349892        0.55        
C_COOH        C        0.25        0.018519        0.4367170626349892        0.55        
C_COOH        C        0.25        0.203703        0.4367170626349892        0.55        
C_COOH        C        0.25        0.351852        0.4367170626349892        0.55        
C_COOH        C        0.25        0.537037        0.4367170626349892        0.55        
C_COOH        C        0.5        0.018519        0.4367170626349892        0.55        
C_COOH        C        0.5        0.203703        0.4367170626349892        0.55        
C_COOH        C        0.5        0.351852        0.4367170626349892        0.55        
C_COOH        C        0.5        0.537037        0.4367170626349892        0.55        
C_COOH        C        0.75        0.018519        0.4367170626349892        0.55        
C_COOH        C        0.75        0.203703        0.4367170626349892        0.55        
C_COOH        C        0.75        0.351852        0.4367170626349892        0.55        
C_COOH        C        0.75        0.537037        0.4367170626349892        0.55        
C_COOH        C        0.0        0.685186        0.4367170626349892        0.55        
C_COOH        C        0.25        0.685186        0.4367170626349892        0.55        
C_COOH        C        0.5        0.685186        0.4367170626349892        0.55        
C_COOH        C        0.75        0.685186        0.4367170626349892        0.55        
C_COOH        C        0.0        0.87037        0.4367170626349892        0.55        
C_COOH        C        0.25        0.87037        0.4367170626349892        0.55        
C_COOH        C        0.5        0.87037        0.4367170626349892        0.55        
C_COOH        C        0.75        0.87037        0.4367170626349892        0.55        
C_COOH        C        0.0        0.018519        0.5632829373650108        0.55        
C_COOH        C        0.0        0.203703        0.5632829373650108        0.55        
C_COOH        C        0.0        0.351852        0.5632829373650108        0.55        
C_COOH        C        0.0        0.537037        0.5632829373650108        0.55        
C_COOH        C        0.25        0.018519        0.5632829373650108        0.55        
C_COOH        C        0.25        0.203703        0.5632829373650108        0.55        
C_COOH        C        0.25        0.351852        0.5632829373650108        0.55        
C_COOH        C        0.25        0.537037        0.5632829373650108        0.55        
C_COOH        C        0.5        0.018519        0.5632829373650108        0.55        
C_COOH        C        0.5        0.203703        0.5632829373650108        0.55        
C_COOH        C        0.5        0.351852        0.5632829373650108        0.55        
C_COOH        C        0.5        0.537037        0.5632829373650108        0.55        
C_COOH        C        0.75        0.018519        0.5632829373650108        0.55        
C_COOH        C        0.75        0.203703        0.5632829373650108        0.55        
C_COOH        C        0.75        0.351852        0.5632829373650108        0.55        
C_COOH        C        0.75        0.537037        0.5632829373650108        0.55        
C_COOH        C        0.0        0.685186        0.5632829373650108        0.55        
C_COOH        C        0.25        0.685186        0.5632829373650108        0.55        
C_COOH        C        0.5        0.685186        0.5632829373650108        0.55        
C_COOH        C        0.75        0.685186        0.5632829373650108        0.55        
C_COOH        C        0.0        0.87037        0.5632829373650108        0.55        
C_COOH        C        0.25        0.87037        0.5632829373650108        0.55        
C_COOH        C        0.5        0.87037        0.5632829373650108        0.55        
C_COOH        C        0.75        0.87037        0.5632829373650108        0.55        
O_COOH_d        O        -0.009570267523976187        0.04639948240437254        0.446113585313175        -0.5        
O_COOH_d        O        0.028416227678333402        0.2084812165938655        0.446113585313175        -0.5        
O_COOH_d        O        -0.010952001552348175        0.3791912780591579        0.446113585313175        -0.5        
O_COOH_d        O        0.02767479069977376        0.5452016531850464        0.446113585313175        -0.5        
O_COOH_d        O        0.27435669773519333        0.03428653650298387        0.446113585313175        -0.5        
O_COOH_d        O        0.2723818892426322        0.2223011556001188        0.446113585313175        -0.5        
O_COOH_d        O        0.2499814459343695        0.38141293903197687        0.446113585313175        -0.5        
O_COOH_d        O        0.22649963063950995        0.5541193335521866        0.446113585313175        -0.5        
O_COOH_d        O        0.48796053746637874        0.045372040456439174        0.446113585313175        -0.5        
O_COOH_d        O        0.5019658603633109        0.23319497362810118        0.446113585313175        -0.5        
O_COOH_d        O        0.5284516546366204        0.3564026126728299        0.446113585313175        -0.5        
O_COOH_d        O        0.5112435391719511        0.5642512684762406        0.446113585313175        -0.5        
O_COOH_d        O        0.7316450061647037        0.04129572268871046        0.446113585313175        -0.5        
O_COOH_d        O        0.7768161538976269        0.2144720345940933        0.446113585313175        -0.5        
O_COOH_d        O        0.7658153402957731        0.3765550114190158        0.446113585313175        -0.5        
O_COOH_d        O        0.7638129192660184        0.5629747285055398        0.446113585313175        -0.5        
O_COOH_d        O        -0.004229799812115359        0.7144262744868091        0.446113585313175        -0.5        
O_COOH_d        O        0.27857167927375526        0.6888595349691958        0.446113585313175        -0.5        
O_COOH_d        O        0.4713054733583287        0.6876518787282603        0.446113585313175        -0.5        
O_COOH_d        O        0.7786886251638788        0.6877232153386443        0.446113585313175        -0.5        
O_COOH_d        O        0.02580560369321979        0.8834854914761027        0.446113585313175        -0.5        
O_COOH_d        O        0.22477344982364952        0.8846234100785659        0.446113585313175        -0.5        
O_COOH_d        O        0.4853031361027381        0.8957905812590294        0.446113585313175        -0.5        
O_COOH_d        O        0.7346973290773303        0.8954110095363591        0.446113585313175        -0.5        
O_COOH_d        O        -0.016243816265447467        0.04292722760468794        0.5538864146868251        -0.5        
O_COOH_d        O        -0.028595161941346498        0.20717863676230983        0.5538864146868251        -0.5        
O_COOH_d        O        0.028022573801971207        0.358652483489779        0.5538864146868251        -0.5        
O_COOH_d        O        0.0062869997978696095        0.56588473843173        0.5538864146868251        -0.5        
O_COOH_d        O        0.2787856033582063        0.019269467262762546        0.5538864146868251        -0.5        
O_COOH_d        O        0.22128188065827273        0.20586008331273584        0.5538864146868251        -0.5        
O_COOH_d        O        0.2571147119749091        0.3804963917076308        0.5538864146868251        -0.5        
O_COOH_d        O        0.22439891480612942        0.550568318742095        0.5538864146868251        -0.5        
O_COOH_d        O        0.47947183721776176        0.03924877450530203        0.5538864146868251        -0.5        
O_COOH_d        O        0.4948806403005793        0.2327930088635324        0.5538864146868251        -0.5        
O_COOH_d        O        0.489435493855513        0.37935151270914175        0.5538864146868251        -0.5        
O_COOH_d        O        0.5212900401295611        0.5569404024753972        0.5538864146868251        -0.5        
O_COOH_d        O        0.7226340570366695        0.027715591508184412        0.5538864146868251        -0.5        
O_COOH_d        O        0.7623763316472276        0.23039414835214297        0.5538864146868251        -0.5        
O_COOH_d        O        0.7749236661535014        0.3666563360087146        0.5538864146868251        -0.5        
O_COOH_d        O        0.7641892910748986        0.562759719229719        0.5538864146868251        -0.5        
O_COOH_d        O        0.02829117608967897        0.6906910014909898        0.5538864146868251        -0.5        
O_COOH_d        O        0.24223829378786868        0.713652775038906        0.5538864146868251        -0.5        
O_COOH_d        O        0.5102701726134047        0.7128027734315859        0.5538864146868251        -0.5        
O_COOH_d        O        0.7261350491301127        0.7017270565444287        0.5538864146868251        -0.5        
O_COOH_d        O        0.026682853739604943        0.8814825167996464        0.5538864146868251        -0.5        
O_COOH_d        O        0.27731746908225036        0.879717241754804        0.5538864146868251        -0.5        
O_COOH_d        O        0.518805149501338        0.8927563652719502        0.5538864146868251        -0.5        
O_COOH_d        O        0.778382442341905        0.8753553564158646        0.5538864146868251        -0.5        
O_COOH        O        0.009318063560635201        -0.008626751829221388        0.45403323974082077        -0.58        
O_COOH        O        -0.027667378680568084        0.19905070310061065        0.45403323974082077        -0.58        
O_COOH        O        0.010663384939374824        0.325233190231214        0.45403323974082077        -0.58        
O_COOH        O        -0.02694548069024381        0.5290875088140736        0.45403323974082077        -0.58        
O_COOH        O        0.22628517102002427        0.0031669832500652146        0.45403323974082077        -0.58        
O_COOH        O        0.2282079376519566        0.1855949590744638        0.45403323974082077        -0.58        
O_COOH        O        0.2500180651128529        0.32307007638898894        0.45403323974082077        -0.58        
O_COOH        O        0.2728810673109032        0.5204048348693523        0.45403323974082077        -0.58        
O_COOH        O        0.5117221882087534        -0.007626385919729201        0.45403323974082077        -0.58        
O_COOH        O        0.49808594568848014        0.1749882243569207        0.45403323974082077        -0.58        
O_COOH        O        0.47229812796297654        0.3474213090063543        0.45403323974082077        -0.58        
O_COOH        O        0.4890527602924099        0.5105399054535307        0.45403323974082077        -0.58        
O_COOH        O        0.767871287169755        -0.00365749080181491        0.45403323974082077        -0.58        
O_COOH        O        0.7238905285725966        0.19321776031542012        0.45403323974082077        -0.58        
O_COOH        O        0.73460143922415        0.327799983693788        0.45403323974082077        -0.58        
O_COOH        O        0.7365510907238247        0.5117828049393478        0.45403323974082077        -0.58        
O_COOH        O        0.00411833247078118        0.6567162905048463        0.45403323974082077        -0.58        
O_COOH        O        0.22218126631884136        0.6816092732001037        0.45403323974082077        -0.58        
O_COOH        O        0.5279383436690331        0.6827851042397525        0.45403323974082077        -0.58        
O_COOH        O        0.7220674022879148        0.6827156475533963        0.45403323974082077        -0.58        
O_COOH        O        -0.02512555211560905        0.8576001392936903        0.45403323974082077        -0.58        
O_COOH        O        0.27456175831761126        0.8564922081059761        0.45403323974082077        -0.58        
O_COOH        O        0.5143095594343211        0.8456193238745416        0.45403323974082077        -0.58        
O_COOH        O        0.764899401709272        0.8459888927950342        0.45403323974082077        -0.58        
O_COOH        O        0.01581574517635146        -0.005246000889801535        0.5459667602591793        -0.58        
O_COOH        O        0.0278415975131926        0.20031895622235774        0.5459667602591793        -0.58        
O_COOH        O        -0.027284098711471735        0.3452307287301992        0.5459667602591793        -0.58        
O_COOH        O        -0.0061213193440500776        0.5089494821104521        0.5459667602591793        -0.58        
O_COOH        O        0.22197297974680238        0.01778830969932887        0.5459667602591793        -0.58        
O_COOH        O        0.27796131463386115        0.2016027620115318        0.5459667602591793        -0.58        
O_COOH        O        0.24307278106576158        0.3239624700658837        0.5459667602591793        -0.58        
O_COOH        O        0.2749264232645621        0.5238622702672965        0.5459667602591793        -0.58        
O_COOH        O        0.5199871868898904        -0.001664485566533678        0.5459667602591793        -0.58        
O_COOH        O        0.5049844499069068        0.1753795961985128        0.5459667602591793        -0.58        
O_COOH        O        0.5102861011454936        0.32507717822325033        0.5459667602591793        -0.58        
O_COOH        O        0.4792710134132904        0.5176581091932357        0.5459667602591793        -0.58        
O_COOH        O        0.776644771976352        0.009564765021743452        0.5459667602591793        -0.58        
O_COOH        O        0.7379498201437473        0.17771523986387794        0.5459667602591793        -0.58        
O_COOH        O        0.7257331438436228        0.3374378006522173        0.5459667602591793        -0.58        
O_COOH        O        0.7361846373902277        0.5119921481048553        0.5459667602591793        -0.58        
O_COOH        O        -0.02754562255948566        0.679826071067405        0.5459667602591793        -0.58        
O_COOH        O        0.2575571630199913        0.6574694060266035        0.5459667602591793        -0.58        
O_COOH        O        0.49000047585392476        0.6582970076567365        0.5459667602591793        -0.58        
O_COOH        O        0.773236041053182        0.6690808476774649        0.5459667602591793        -0.58        
O_COOH        O        -0.025979684110384347        0.85955032984989        0.5459667602591793        -0.58        
O_COOH        O        0.2234024244791081        0.8612690848406608        0.5459667602591793        -0.58        
O_COOH        O        0.48169042005547696        0.8485735795788328        0.5459667602591793        -0.58        
O_COOH        O        0.7223655163154672        0.8655160220062743        0.5459667602591793        -0.58        
H_COOH        H        0.0158595132325118        -0.02768356210322203        0.4414250323974082        0.45        
H_COOH        H        -0.04709038046779245        0.1957847062732711        0.4414250323974082        0.45        
H_COOH        H        0.018149274626524835        0.30654630284364814        0.4414250323974082        0.45        
H_COOH        H        -0.04586169699127718        0.5235068217784704        0.4414250323974082        0.45        
H_COOH        H        0.2096369308314698        -0.007610411031269691        0.4414250323974082        0.45        
H_COOH        H        0.21290951452267656        0.17288278582088257        0.4414250323974082        0.45        
H_COOH        H        0.2500307471498207        0.30286464384004086        0.4414250323974082        0.45        
H_COOH        H        0.2889439916813065        0.5087287531997553        0.4414250323974082        0.45        
H_COOH        H        0.5199513770002707        -0.0259809211761984        0.4414250323974082        0.45        
H_COOH        H        0.496742244836198        0.15482993089968797        0.4414250323974082        0.45        
H_COOH        H        0.45285091121372717        0.3443108835453163        0.4414250323974082        0.45        
H_COOH        H        0.48136759940815776        0.4919384643602409        0.4414250323974082        0.45        
H_COOH        H        0.7804172549914895        -0.019225789680108633        0.4414250323974082        0.45        
H_COOH        H        0.7055612059413162        0.1858569318291239        0.4414250323974082        0.45        
H_COOH        H        0.7237913701922011        0.3109150318848184        0.4414250323974082        0.45        
H_COOH        H        0.7271097124160621        0.494053901834318        0.4414250323974082        0.45        
H_COOH        H        0.007009476581825841        0.6367300379295525        0.4414250323974082        0.45        
H_COOH        H        0.202652010575255        0.6790983460960628        0.4414250323974082        0.45        
H_COOH        H        0.5475515677941232        0.681099631857977        0.4414250323974082        0.45        
H_COOH        H        0.7024582119288478        0.6809814153176856        0.4414250323974082        0.45        
H_COOH        H        -0.04276414553932306        0.8486354654015641        0.4414250323974082        0.45        
H_COOH        H        0.2918045582665416        0.8467497464195112        0.4414250323974082        0.45        
H_COOH        H        0.5243551297673871        0.8282439001970744        0.4414250323974082        0.45        
H_COOH        H        0.775359052020525        0.828872913204631        0.4414250323974082        0.45        
H_COOH        H        0.026918685226191126        -0.02192946266929406        0.5585749676025918        0.45        
H_COOH        H        0.04738690408167225        0.1979432960956774        0.5585749676025918        0.45        
H_COOH        H        -0.04643803100676067        0.3405824761728522        0.5585749676025918        0.45        
H_COOH        H        -0.010418596579177528        0.48923153497617805        0.5585749676025918        0.45        
H_COOH        H        0.20229750305082025        0.017275351851760514        0.5585749676025918        0.45        
H_COOH        H        0.2975906647930096        0.20012835684020766        0.5585749676025918        0.45        
H_COOH        H        0.23820974769734543        0.30438351406830494        0.5585749676025918        0.45        
H_COOH        H        0.29242522462216003        0.5146133709733339        0.5585749676025918        0.45        
H_COOH        H        0.5340185547027215        -0.015833658611703123        0.5585749676025918        0.45        
H_COOH        H        0.5084836241715861        0.15549605287451373        0.5585749676025918        0.45        
H_COOH        H        0.5175071307644944        0.30628076757565714        0.5585749676025918        0.45        
H_COOH        H        0.46471888875524386        0.5040537762667281        0.5585749676025918        0.45        
H_COOH        H        0.7953498853046466        0.0032787296154310496        0.5585749676025918        0.45        
H_COOH        H        0.7294903752651201        0.1594713607672156        0.5585749676025918        0.45        
H_COOH        H        0.7086973705621205        0.3273187712014793        0.5585749676025918        0.45        
H_COOH        H        0.7264860021939261        0.4944102077000054        0.5585749676025918        0.45        
H_COOH        H        -0.04688314934075833        0.6760633037145908        0.5585749676025918        0.45        
H_COOH        H        0.2628624285653221        0.6380118542109288        0.5585749676025918        0.45        
H_COOH        H        0.48298062848771867        0.639420447200119        0.5585749676025918        0.45        
H_COOH        H        0.7895481634307512        0.6577747385604558        0.5585749676025918        0.45        
H_COOH        H        -0.04421789369046007        0.8519547251094106        0.5585749676025918        0.45        
H_COOH        H        0.20473044391880477        0.8548800772860933        0.5585749676025918        0.45        
H_COOH        H        0.46883676275415953        0.8332720970031537        0.5585749676025918        0.45        
H_COOH        H        0.7029656074122548        0.8621084413917256        0.5585749676025918        0.45        
