data_graphite_ortho

_audit_creation_method RASPA-1.0
_audit_creation_date 2012-2-3
_audit_author_name 'David Dubbeldam'

_cell_length_a    39.36    
_cell_length_b    38.34    
_cell_length_c    25.2    
_cell_angle_alpha 90
_cell_angle_beta  90
_cell_angle_gamma 90
_cell_volume      38028.37      

_symmetry_cell_setting          triclinic
_symmetry_space_group_name_Hall 'P 1'
_symmetry_space_group_name_H-M  'P 1'
_symmetry_Int_Tables_number     1

_symmetry_equiv_pos_as_xyz 'x,y,z'

loop_
_atom_site_label
_atom_site_type_symbol
_atom_site_fract_x
_atom_site_fract_y
_atom_site_fract_z
_atom_site_charge
C_FG        C        0.0        0.018519        0.07020630952380952        0.2        
C2        C        0.03125        0.074075        0.07020630952380952        0        
C3        C        0.0        0.092592        0.07020630952380952        0        
C4        C        0.03125        0.037037        0.07020630952380952        0        
C1        C        0.0        0.12963        0.07020630952380952        0        
C2        C        0.03125        0.185185        0.07020630952380952        0        
C3        C        0.0        0.203703        0.07020630952380952        0        
C4        C        0.03125        0.148148        0.07020630952380952        0        
C_FG        C        0.0        0.24074099999999998        0.07020630952380952        0.2        
C2        C        0.03125        0.296297        0.07020630952380952        0        
C3        C        0.0        0.314815        0.07020630952380952        0        
C4        C        0.03125        0.259259        0.07020630952380952        0        
C1        C        0.0        0.351852        0.07020630952380952        0        
C2        C        0.03125        0.407408        0.07020630952380952        0        
C3        C        0.0        0.42592500000000005        0.07020630952380952        0        
C4        C        0.03125        0.37037        0.07020630952380952        0        
C_FG        C        0.0        0.46296300000000007        0.07020630952380952        0.2        
C2        C        0.03125        0.518519        0.07020630952380952        0        
C3        C        0.0        0.537037        0.07020630952380952        0        
C4        C        0.03125        0.481481        0.07020630952380952        0        
C1        C        0.0        0.574075        0.07020630952380952        0        
C2        C        0.03125        0.62963        0.07020630952380952        0        
C3        C        0.0        0.648148        0.07020630952380952        0        
C4        C        0.03125        0.592592        0.07020630952380952        0        
C1        C        0.0625        0.018519        0.07020630952380952        0        
C2        C        0.09375        0.074075        0.07020630952380952        0        
C3        C        0.0625        0.092592        0.07020630952380952        0        
C4        C        0.09375        0.037037        0.07020630952380952        0        
C1        C        0.0625        0.12963        0.07020630952380952        0        
C2        C        0.09375        0.185185        0.07020630952380952        0        
C3        C        0.0625        0.203703        0.07020630952380952        0        
C4        C        0.09375        0.148148        0.07020630952380952        0        
C1        C        0.0625        0.24074099999999998        0.07020630952380952        0        
C2        C        0.09375        0.296297        0.07020630952380952        0        
C3        C        0.0625        0.314815        0.07020630952380952        0        
C4        C        0.09375        0.259259        0.07020630952380952        0        
C1        C        0.0625        0.351852        0.07020630952380952        0        
C2        C        0.09375        0.407408        0.07020630952380952        0        
C3        C        0.0625        0.42592500000000005        0.07020630952380952        0        
C4        C        0.09375        0.37037        0.07020630952380952        0        
C1        C        0.0625        0.46296300000000007        0.07020630952380952        0        
C2        C        0.09375        0.518519        0.07020630952380952        0        
C3        C        0.0625        0.537037        0.07020630952380952        0        
C4        C        0.09375        0.481481        0.07020630952380952        0        
C1        C        0.0625        0.574075        0.07020630952380952        0        
C2        C        0.09375        0.62963        0.07020630952380952        0        
C3        C        0.0625        0.648148        0.07020630952380952        0        
C4        C        0.09375        0.592592        0.07020630952380952        0        
C1        C        0.125        0.018519        0.07020630952380952        0        
C2        C        0.15625        0.074075        0.07020630952380952        0        
C3        C        0.125        0.092592        0.07020630952380952        0        
C4        C        0.15625        0.037037        0.07020630952380952        0        
C1        C        0.125        0.12963        0.07020630952380952        0        
C2        C        0.15625        0.185185        0.07020630952380952        0        
C3        C        0.125        0.203703        0.07020630952380952        0        
C4        C        0.15625        0.148148        0.07020630952380952        0        
C1        C        0.125        0.24074099999999998        0.07020630952380952        0        
C2        C        0.15625        0.296297        0.07020630952380952        0        
C3        C        0.125        0.314815        0.07020630952380952        0        
C4        C        0.15625        0.259259        0.07020630952380952        0        
C1        C        0.125        0.351852        0.07020630952380952        0        
C2        C        0.15625        0.407408        0.07020630952380952        0        
C3        C        0.125        0.42592500000000005        0.07020630952380952        0        
C4        C        0.15625        0.37037        0.07020630952380952        0        
C1        C        0.125        0.46296300000000007        0.07020630952380952        0        
C2        C        0.15625        0.518519        0.07020630952380952        0        
C3        C        0.125        0.537037        0.07020630952380952        0        
C4        C        0.15625        0.481481        0.07020630952380952        0        
C1        C        0.125        0.574075        0.07020630952380952        0        
C2        C        0.15625        0.62963        0.07020630952380952        0        
C3        C        0.125        0.648148        0.07020630952380952        0        
C4        C        0.15625        0.592592        0.07020630952380952        0        
C_FG        C        0.1875        0.018519        0.07020630952380952        0.2        
C2        C        0.21875        0.074075        0.07020630952380952        0        
C3        C        0.1875        0.092592        0.07020630952380952        0        
C4        C        0.21875        0.037037        0.07020630952380952        0        
C1        C        0.1875        0.12963        0.07020630952380952        0        
C2        C        0.21875        0.185185        0.07020630952380952        0        
C3        C        0.1875        0.203703        0.07020630952380952        0        
C4        C        0.21875        0.148148        0.07020630952380952        0        
C_FG        C        0.1875        0.24074099999999998        0.07020630952380952        0.2        
C2        C        0.21875        0.296297        0.07020630952380952        0        
C3        C        0.1875        0.314815        0.07020630952380952        0        
C4        C        0.21875        0.259259        0.07020630952380952        0        
C1        C        0.1875        0.351852        0.07020630952380952        0        
C2        C        0.21875        0.407408        0.07020630952380952        0        
C3        C        0.1875        0.42592500000000005        0.07020630952380952        0        
C4        C        0.21875        0.37037        0.07020630952380952        0        
C_FG        C        0.1875        0.46296300000000007        0.07020630952380952        0.2        
C2        C        0.21875        0.518519        0.07020630952380952        0        
C3        C        0.1875        0.537037        0.07020630952380952        0        
C4        C        0.21875        0.481481        0.07020630952380952        0        
C1        C        0.1875        0.574075        0.07020630952380952        0        
C2        C        0.21875        0.62963        0.07020630952380952        0        
C3        C        0.1875        0.648148        0.07020630952380952        0        
C4        C        0.21875        0.592592        0.07020630952380952        0        
C1        C        0.25        0.018519        0.07020630952380952        0        
C2        C        0.28125        0.074075        0.07020630952380952        0        
C3        C        0.25        0.092592        0.07020630952380952        0        
C4        C        0.28125        0.037037        0.07020630952380952        0        
C1        C        0.25        0.12963        0.07020630952380952        0        
C2        C        0.28125        0.185185        0.07020630952380952        0        
C3        C        0.25        0.203703        0.07020630952380952        0        
C4        C        0.28125        0.148148        0.07020630952380952        0        
C1        C        0.25        0.24074099999999998        0.07020630952380952        0        
C2        C        0.28125        0.296297        0.07020630952380952        0        
C3        C        0.25        0.314815        0.07020630952380952        0        
C4        C        0.28125        0.259259        0.07020630952380952        0        
C1        C        0.25        0.351852        0.07020630952380952        0        
C2        C        0.28125        0.407408        0.07020630952380952        0        
C3        C        0.25        0.42592500000000005        0.07020630952380952        0        
C4        C        0.28125        0.37037        0.07020630952380952        0        
C1        C        0.25        0.46296300000000007        0.07020630952380952        0        
C2        C        0.28125        0.518519        0.07020630952380952        0        
C3        C        0.25        0.537037        0.07020630952380952        0        
C4        C        0.28125        0.481481        0.07020630952380952        0        
C1        C        0.25        0.574075        0.07020630952380952        0        
C2        C        0.28125        0.62963        0.07020630952380952        0        
C3        C        0.25        0.648148        0.07020630952380952        0        
C4        C        0.28125        0.592592        0.07020630952380952        0        
C1        C        0.3125        0.018519        0.07020630952380952        0        
C2        C        0.34375        0.074075        0.07020630952380952        0        
C3        C        0.3125        0.092592        0.07020630952380952        0        
C4        C        0.34375        0.037037        0.07020630952380952        0        
C1        C        0.3125        0.12963        0.07020630952380952        0        
C2        C        0.34375        0.185185        0.07020630952380952        0        
C3        C        0.3125        0.203703        0.07020630952380952        0        
C4        C        0.34375        0.148148        0.07020630952380952        0        
C1        C        0.3125        0.24074099999999998        0.07020630952380952        0        
C2        C        0.34375        0.296297        0.07020630952380952        0        
C3        C        0.3125        0.314815        0.07020630952380952        0        
C4        C        0.34375        0.259259        0.07020630952380952        0        
C1        C        0.3125        0.351852        0.07020630952380952        0        
C2        C        0.34375        0.407408        0.07020630952380952        0        
C3        C        0.3125        0.42592500000000005        0.07020630952380952        0        
C4        C        0.34375        0.37037        0.07020630952380952        0        
C1        C        0.3125        0.46296300000000007        0.07020630952380952        0        
C2        C        0.34375        0.518519        0.07020630952380952        0        
C3        C        0.3125        0.537037        0.07020630952380952        0        
C4        C        0.34375        0.481481        0.07020630952380952        0        
C1        C        0.3125        0.574075        0.07020630952380952        0        
C2        C        0.34375        0.62963        0.07020630952380952        0        
C3        C        0.3125        0.648148        0.07020630952380952        0        
C4        C        0.34375        0.592592        0.07020630952380952        0        
C_FG        C        0.375        0.018519        0.07020630952380952        0.2        
C2        C        0.40625        0.074075        0.07020630952380952        0        
C3        C        0.375        0.092592        0.07020630952380952        0        
C4        C        0.40625        0.037037        0.07020630952380952        0        
C1        C        0.375        0.12963        0.07020630952380952        0        
C2        C        0.40625        0.185185        0.07020630952380952        0        
C3        C        0.375        0.203703        0.07020630952380952        0        
C4        C        0.40625        0.148148        0.07020630952380952        0        
C_FG        C        0.375        0.24074099999999998        0.07020630952380952        0.2        
C2        C        0.40625        0.296297        0.07020630952380952        0        
C3        C        0.375        0.314815        0.07020630952380952        0        
C4        C        0.40625        0.259259        0.07020630952380952        0        
C1        C        0.375        0.351852        0.07020630952380952        0        
C2        C        0.40625        0.407408        0.07020630952380952        0        
C3        C        0.375        0.42592500000000005        0.07020630952380952        0        
C4        C        0.40625        0.37037        0.07020630952380952        0        
C_FG        C        0.375        0.46296300000000007        0.07020630952380952        0.2        
C2        C        0.40625        0.518519        0.07020630952380952        0        
C3        C        0.375        0.537037        0.07020630952380952        0        
C4        C        0.40625        0.481481        0.07020630952380952        0        
C1        C        0.375        0.574075        0.07020630952380952        0        
C2        C        0.40625        0.62963        0.07020630952380952        0        
C3        C        0.375        0.648148        0.07020630952380952        0        
C4        C        0.40625        0.592592        0.07020630952380952        0        
C1        C        0.4375        0.018519        0.07020630952380952        0        
C2        C        0.46875        0.074075        0.07020630952380952        0        
C3        C        0.4375        0.092592        0.07020630952380952        0        
C4        C        0.46875        0.037037        0.07020630952380952        0        
C1        C        0.4375        0.12963        0.07020630952380952        0        
C2        C        0.46875        0.185185        0.07020630952380952        0        
C3        C        0.4375        0.203703        0.07020630952380952        0        
C4        C        0.46875        0.148148        0.07020630952380952        0        
C1        C        0.4375        0.24074099999999998        0.07020630952380952        0        
C2        C        0.46875        0.296297        0.07020630952380952        0        
C3        C        0.4375        0.314815        0.07020630952380952        0        
C4        C        0.46875        0.259259        0.07020630952380952        0        
C1        C        0.4375        0.351852        0.07020630952380952        0        
C2        C        0.46875        0.407408        0.07020630952380952        0        
C3        C        0.4375        0.42592500000000005        0.07020630952380952        0        
C4        C        0.46875        0.37037        0.07020630952380952        0        
C1        C        0.4375        0.46296300000000007        0.07020630952380952        0        
C2        C        0.46875        0.518519        0.07020630952380952        0        
C3        C        0.4375        0.537037        0.07020630952380952        0        
C4        C        0.46875        0.481481        0.07020630952380952        0        
C1        C        0.4375        0.574075        0.07020630952380952        0        
C2        C        0.46875        0.62963        0.07020630952380952        0        
C3        C        0.4375        0.648148        0.07020630952380952        0        
C4        C        0.46875        0.592592        0.07020630952380952        0        
C1        C        0.5        0.018519        0.07020630952380952        0        
C2        C        0.53125        0.074075        0.07020630952380952        0        
C3        C        0.5        0.092592        0.07020630952380952        0        
C4        C        0.53125        0.037037        0.07020630952380952        0        
C1        C        0.5        0.12963        0.07020630952380952        0        
C2        C        0.53125        0.185185        0.07020630952380952        0        
C3        C        0.5        0.203703        0.07020630952380952        0        
C4        C        0.53125        0.148148        0.07020630952380952        0        
C1        C        0.5        0.24074099999999998        0.07020630952380952        0        
C2        C        0.53125        0.296297        0.07020630952380952        0        
C3        C        0.5        0.314815        0.07020630952380952        0        
C4        C        0.53125        0.259259        0.07020630952380952        0        
C1        C        0.5        0.351852        0.07020630952380952        0        
C2        C        0.53125        0.407408        0.07020630952380952        0        
C3        C        0.5        0.42592500000000005        0.07020630952380952        0        
C4        C        0.53125        0.37037        0.07020630952380952        0        
C1        C        0.5        0.46296300000000007        0.07020630952380952        0        
C2        C        0.53125        0.518519        0.07020630952380952        0        
C3        C        0.5        0.537037        0.07020630952380952        0        
C4        C        0.53125        0.481481        0.07020630952380952        0        
C1        C        0.5        0.574075        0.07020630952380952        0        
C2        C        0.53125        0.62963        0.07020630952380952        0        
C3        C        0.5        0.648148        0.07020630952380952        0        
C4        C        0.53125        0.592592        0.07020630952380952        0        
C_FG        C        0.5625        0.018519        0.07020630952380952        0.2        
C2        C        0.59375        0.074075        0.07020630952380952        0        
C3        C        0.5625        0.092592        0.07020630952380952        0        
C4        C        0.59375        0.037037        0.07020630952380952        0        
C1        C        0.5625        0.12963        0.07020630952380952        0        
C2        C        0.59375        0.185185        0.07020630952380952        0        
C3        C        0.5625        0.203703        0.07020630952380952        0        
C4        C        0.59375        0.148148        0.07020630952380952        0        
C_FG        C        0.5625        0.24074099999999998        0.07020630952380952        0.2        
C2        C        0.59375        0.296297        0.07020630952380952        0        
C3        C        0.5625        0.314815        0.07020630952380952        0        
C4        C        0.59375        0.259259        0.07020630952380952        0        
C1        C        0.5625        0.351852        0.07020630952380952        0        
C2        C        0.59375        0.407408        0.07020630952380952        0        
C3        C        0.5625        0.42592500000000005        0.07020630952380952        0        
C4        C        0.59375        0.37037        0.07020630952380952        0        
C_FG        C        0.5625        0.46296300000000007        0.07020630952380952        0.2        
C2        C        0.59375        0.518519        0.07020630952380952        0        
C3        C        0.5625        0.537037        0.07020630952380952        0        
C4        C        0.59375        0.481481        0.07020630952380952        0        
C1        C        0.5625        0.574075        0.07020630952380952        0        
C2        C        0.59375        0.62963        0.07020630952380952        0        
C3        C        0.5625        0.648148        0.07020630952380952        0        
C4        C        0.59375        0.592592        0.07020630952380952        0        
C1        C        0.625        0.018519        0.07020630952380952        0        
C2        C        0.65625        0.074075        0.07020630952380952        0        
C3        C        0.625        0.092592        0.07020630952380952        0        
C4        C        0.65625        0.037037        0.07020630952380952        0        
C1        C        0.625        0.12963        0.07020630952380952        0        
C2        C        0.65625        0.185185        0.07020630952380952        0        
C3        C        0.625        0.203703        0.07020630952380952        0        
C4        C        0.65625        0.148148        0.07020630952380952        0        
C1        C        0.625        0.24074099999999998        0.07020630952380952        0        
C2        C        0.65625        0.296297        0.07020630952380952        0        
C3        C        0.625        0.314815        0.07020630952380952        0        
C4        C        0.65625        0.259259        0.07020630952380952        0        
C1        C        0.625        0.351852        0.07020630952380952        0        
C2        C        0.65625        0.407408        0.07020630952380952        0        
C3        C        0.625        0.42592500000000005        0.07020630952380952        0        
C4        C        0.65625        0.37037        0.07020630952380952        0        
C1        C        0.625        0.46296300000000007        0.07020630952380952        0        
C2        C        0.65625        0.518519        0.07020630952380952        0        
C3        C        0.625        0.537037        0.07020630952380952        0        
C4        C        0.65625        0.481481        0.07020630952380952        0        
C1        C        0.625        0.574075        0.07020630952380952        0        
C2        C        0.65625        0.62963        0.07020630952380952        0        
C3        C        0.625        0.648148        0.07020630952380952        0        
C4        C        0.65625        0.592592        0.07020630952380952        0        
C1        C        0.6875        0.018519        0.07020630952380952        0        
C2        C        0.71875        0.074075        0.07020630952380952        0        
C3        C        0.6875        0.092592        0.07020630952380952        0        
C4        C        0.71875        0.037037        0.07020630952380952        0        
C1        C        0.6875        0.12963        0.07020630952380952        0        
C2        C        0.71875        0.185185        0.07020630952380952        0        
C3        C        0.6875        0.203703        0.07020630952380952        0        
C4        C        0.71875        0.148148        0.07020630952380952        0        
C1        C        0.6875        0.24074099999999998        0.07020630952380952        0        
C2        C        0.71875        0.296297        0.07020630952380952        0        
C3        C        0.6875        0.314815        0.07020630952380952        0        
C4        C        0.71875        0.259259        0.07020630952380952        0        
C1        C        0.6875        0.351852        0.07020630952380952        0        
C2        C        0.71875        0.407408        0.07020630952380952        0        
C3        C        0.6875        0.42592500000000005        0.07020630952380952        0        
C4        C        0.71875        0.37037        0.07020630952380952        0        
C1        C        0.6875        0.46296300000000007        0.07020630952380952        0        
C2        C        0.71875        0.518519        0.07020630952380952        0        
C3        C        0.6875        0.537037        0.07020630952380952        0        
C4        C        0.71875        0.481481        0.07020630952380952        0        
C1        C        0.6875        0.574075        0.07020630952380952        0        
C2        C        0.71875        0.62963        0.07020630952380952        0        
C3        C        0.6875        0.648148        0.07020630952380952        0        
C4        C        0.71875        0.592592        0.07020630952380952        0        
C_FG        C        0.75        0.018519        0.07020630952380952        0.2        
C2        C        0.78125        0.074075        0.07020630952380952        0        
C3        C        0.75        0.092592        0.07020630952380952        0        
C4        C        0.78125        0.037037        0.07020630952380952        0        
C1        C        0.75        0.12963        0.07020630952380952        0        
C2        C        0.78125        0.185185        0.07020630952380952        0        
C3        C        0.75        0.203703        0.07020630952380952        0        
C4        C        0.78125        0.148148        0.07020630952380952        0        
C_FG        C        0.75        0.24074099999999998        0.07020630952380952        0.2        
C2        C        0.78125        0.296297        0.07020630952380952        0        
C3        C        0.75        0.314815        0.07020630952380952        0        
C4        C        0.78125        0.259259        0.07020630952380952        0        
C1        C        0.75        0.351852        0.07020630952380952        0        
C2        C        0.78125        0.407408        0.07020630952380952        0        
C3        C        0.75        0.42592500000000005        0.07020630952380952        0        
C4        C        0.78125        0.37037        0.07020630952380952        0        
C_FG        C        0.75        0.46296300000000007        0.07020630952380952        0.2        
C2        C        0.78125        0.518519        0.07020630952380952        0        
C3        C        0.75        0.537037        0.07020630952380952        0        
C4        C        0.78125        0.481481        0.07020630952380952        0        
C1        C        0.75        0.574075        0.07020630952380952        0        
C2        C        0.78125        0.62963        0.07020630952380952        0        
C3        C        0.75        0.648148        0.07020630952380952        0        
C4        C        0.78125        0.592592        0.07020630952380952        0        
C1        C        0.8125        0.018519        0.07020630952380952        0        
C2        C        0.84375        0.074075        0.07020630952380952        0        
C3        C        0.8125        0.092592        0.07020630952380952        0        
C4        C        0.84375        0.037037        0.07020630952380952        0        
C1        C        0.8125        0.12963        0.07020630952380952        0        
C2        C        0.84375        0.185185        0.07020630952380952        0        
C3        C        0.8125        0.203703        0.07020630952380952        0        
C4        C        0.84375        0.148148        0.07020630952380952        0        
C1        C        0.8125        0.24074099999999998        0.07020630952380952        0        
C2        C        0.84375        0.296297        0.07020630952380952        0        
C3        C        0.8125        0.314815        0.07020630952380952        0        
C4        C        0.84375        0.259259        0.07020630952380952        0        
C1        C        0.8125        0.351852        0.07020630952380952        0        
C2        C        0.84375        0.407408        0.07020630952380952        0        
C3        C        0.8125        0.42592500000000005        0.07020630952380952        0        
C4        C        0.84375        0.37037        0.07020630952380952        0        
C1        C        0.8125        0.46296300000000007        0.07020630952380952        0        
C2        C        0.84375        0.518519        0.07020630952380952        0        
C3        C        0.8125        0.537037        0.07020630952380952        0        
C4        C        0.84375        0.481481        0.07020630952380952        0        
C1        C        0.8125        0.574075        0.07020630952380952        0        
C2        C        0.84375        0.62963        0.07020630952380952        0        
C3        C        0.8125        0.648148        0.07020630952380952        0        
C4        C        0.84375        0.592592        0.07020630952380952        0        
C1        C        0.875        0.018519        0.07020630952380952        0        
C2        C        0.9062500000000001        0.074075        0.07020630952380952        0        
C3        C        0.875        0.092592        0.07020630952380952        0        
C4        C        0.9062500000000001        0.037037        0.07020630952380952        0        
C1        C        0.875        0.12963        0.07020630952380952        0        
C2        C        0.9062500000000001        0.185185        0.07020630952380952        0        
C3        C        0.875        0.203703        0.07020630952380952        0        
C4        C        0.9062500000000001        0.148148        0.07020630952380952        0        
C1        C        0.875        0.24074099999999998        0.07020630952380952        0        
C2        C        0.9062500000000001        0.296297        0.07020630952380952        0        
C3        C        0.875        0.314815        0.07020630952380952        0        
C4        C        0.9062500000000001        0.259259        0.07020630952380952        0        
C1        C        0.875        0.351852        0.07020630952380952        0        
C2        C        0.9062500000000001        0.407408        0.07020630952380952        0        
C3        C        0.875        0.42592500000000005        0.07020630952380952        0        
C4        C        0.9062500000000001        0.37037        0.07020630952380952        0        
C1        C        0.875        0.46296300000000007        0.07020630952380952        0        
C2        C        0.9062500000000001        0.518519        0.07020630952380952        0        
C3        C        0.875        0.537037        0.07020630952380952        0        
C4        C        0.9062500000000001        0.481481        0.07020630952380952        0        
C1        C        0.875        0.574075        0.07020630952380952        0        
C2        C        0.9062500000000001        0.62963        0.07020630952380952        0        
C3        C        0.875        0.648148        0.07020630952380952        0        
C4        C        0.9062500000000001        0.592592        0.07020630952380952        0        
C_FG        C        0.9375        0.018519        0.07020630952380952        0.2        
C2        C        0.9687500000000001        0.074075        0.07020630952380952        0        
C3        C        0.9375        0.092592        0.07020630952380952        0        
C4        C        0.9687500000000001        0.037037        0.07020630952380952        0        
C1        C        0.9375        0.12963        0.07020630952380952        0        
C2        C        0.9687500000000001        0.185185        0.07020630952380952        0        
C3        C        0.9375        0.203703        0.07020630952380952        0        
C4        C        0.9687500000000001        0.148148        0.07020630952380952        0        
C_FG        C        0.9375        0.24074099999999998        0.07020630952380952        0.2        
C2        C        0.9687500000000001        0.296297        0.07020630952380952        0        
C3        C        0.9375        0.314815        0.07020630952380952        0        
C4        C        0.9687500000000001        0.259259        0.07020630952380952        0        
C1        C        0.9375        0.351852        0.07020630952380952        0        
C2        C        0.9687500000000001        0.407408        0.07020630952380952        0        
C3        C        0.9375        0.42592500000000005        0.07020630952380952        0        
C4        C        0.9687500000000001        0.37037        0.07020630952380952        0        
C_FG        C        0.9375        0.46296300000000007        0.07020630952380952        0.2        
C2        C        0.9687500000000001        0.518519        0.07020630952380952        0        
C3        C        0.9375        0.537037        0.07020630952380952        0        
C4        C        0.9687500000000001        0.481481        0.07020630952380952        0        
C1        C        0.9375        0.574075        0.07020630952380952        0        
C2        C        0.9687500000000001        0.62963        0.07020630952380952        0        
C3        C        0.9375        0.648148        0.07020630952380952        0        
C4        C        0.9687500000000001        0.592592        0.07020630952380952        0        
C_FG        C        0.0        0.685186        0.07020630952380952        0.2        
C1        C        0.0625        0.685186        0.07020630952380952        0        
C1        C        0.125        0.685186        0.07020630952380952        0        
C_FG        C        0.1875        0.685186        0.07020630952380952        0.2        
C1        C        0.25        0.685186        0.07020630952380952        0        
C1        C        0.3125        0.685186        0.07020630952380952        0        
C_FG        C        0.375        0.685186        0.07020630952380952        0.2        
C1        C        0.4375        0.685186        0.07020630952380952        0        
C1        C        0.5        0.685186        0.07020630952380952        0        
C_FG        C        0.5625        0.685186        0.07020630952380952        0.2        
C1        C        0.625        0.685186        0.07020630952380952        0        
C1        C        0.6875        0.685186        0.07020630952380952        0        
C_FG        C        0.75        0.685186        0.07020630952380952        0.2        
C1        C        0.8125        0.685186        0.07020630952380952        0        
C1        C        0.875        0.685186        0.07020630952380952        0        
C_FG        C        0.9375        0.685186        0.07020630952380952        0.2        
C2        C        0.03125        0.740741        0.07020630952380952        0        
C2        C        0.09375        0.740741        0.07020630952380952        0        
C2        C        0.15625        0.740741        0.07020630952380952        0        
C2        C        0.21875        0.740741        0.07020630952380952        0        
C2        C        0.28125        0.740741        0.07020630952380952        0        
C2        C        0.34375        0.740741        0.07020630952380952        0        
C2        C        0.40625        0.740741        0.07020630952380952        0        
C2        C        0.46875        0.740741        0.07020630952380952        0        
C2        C        0.53125        0.740741        0.07020630952380952        0        
C2        C        0.59375        0.740741        0.07020630952380952        0        
C2        C        0.65625        0.740741        0.07020630952380952        0        
C2        C        0.71875        0.740741        0.07020630952380952        0        
C2        C        0.78125        0.740741        0.07020630952380952        0        
C2        C        0.84375        0.740741        0.07020630952380952        0        
C2        C        0.9062500000000001        0.740741        0.07020630952380952        0        
C2        C        0.9687500000000001        0.740741        0.07020630952380952        0        
C3        C        0.0        0.759259        0.07020630952380952        0        
C3        C        0.0625        0.759259        0.07020630952380952        0        
C3        C        0.125        0.759259        0.07020630952380952        0        
C3        C        0.1875        0.759259        0.07020630952380952        0        
C3        C        0.25        0.759259        0.07020630952380952        0        
C3        C        0.3125        0.759259        0.07020630952380952        0        
C3        C        0.375        0.759259        0.07020630952380952        0        
C3        C        0.4375        0.759259        0.07020630952380952        0        
C3        C        0.5        0.759259        0.07020630952380952        0        
C3        C        0.5625        0.759259        0.07020630952380952        0        
C3        C        0.625        0.759259        0.07020630952380952        0        
C3        C        0.6875        0.759259        0.07020630952380952        0        
C3        C        0.75        0.759259        0.07020630952380952        0        
C3        C        0.8125        0.759259        0.07020630952380952        0        
C3        C        0.875        0.759259        0.07020630952380952        0        
C3        C        0.9375        0.759259        0.07020630952380952        0        
C4        C        0.03125        0.703703        0.07020630952380952        0        
C4        C        0.09375        0.703703        0.07020630952380952        0        
C4        C        0.15625        0.703703        0.07020630952380952        0        
C4        C        0.21875        0.703703        0.07020630952380952        0        
C4        C        0.28125        0.703703        0.07020630952380952        0        
C4        C        0.34375        0.703703        0.07020630952380952        0        
C4        C        0.40625        0.703703        0.07020630952380952        0        
C4        C        0.46875        0.703703        0.07020630952380952        0        
C4        C        0.53125        0.703703        0.07020630952380952        0        
C4        C        0.59375        0.703703        0.07020630952380952        0        
C4        C        0.65625        0.703703        0.07020630952380952        0        
C4        C        0.71875        0.703703        0.07020630952380952        0        
C4        C        0.78125        0.703703        0.07020630952380952        0        
C4        C        0.84375        0.703703        0.07020630952380952        0        
C4        C        0.9062500000000001        0.703703        0.07020630952380952        0        
C4        C        0.9687500000000001        0.703703        0.07020630952380952        0        
C1        C        0.0        0.796297        0.07020630952380952        0        
C1        C        0.0625        0.796297        0.07020630952380952        0        
C1        C        0.125        0.796297        0.07020630952380952        0        
C1        C        0.1875        0.796297        0.07020630952380952        0        
C1        C        0.25        0.796297        0.07020630952380952        0        
C1        C        0.3125        0.796297        0.07020630952380952        0        
C1        C        0.375        0.796297        0.07020630952380952        0        
C1        C        0.4375        0.796297        0.07020630952380952        0        
C1        C        0.5        0.796297        0.07020630952380952        0        
C1        C        0.5625        0.796297        0.07020630952380952        0        
C1        C        0.625        0.796297        0.07020630952380952        0        
C1        C        0.6875        0.796297        0.07020630952380952        0        
C1        C        0.75        0.796297        0.07020630952380952        0        
C1        C        0.8125        0.796297        0.07020630952380952        0        
C1        C        0.875        0.796297        0.07020630952380952        0        
C1        C        0.9375        0.796297        0.07020630952380952        0        
C2        C        0.03125        0.851852        0.07020630952380952        0        
C2        C        0.09375        0.851852        0.07020630952380952        0        
C2        C        0.15625        0.851852        0.07020630952380952        0        
C2        C        0.21875        0.851852        0.07020630952380952        0        
C2        C        0.28125        0.851852        0.07020630952380952        0        
C2        C        0.34375        0.851852        0.07020630952380952        0        
C2        C        0.40625        0.851852        0.07020630952380952        0        
C2        C        0.46875        0.851852        0.07020630952380952        0        
C2        C        0.53125        0.851852        0.07020630952380952        0        
C2        C        0.59375        0.851852        0.07020630952380952        0        
C2        C        0.65625        0.851852        0.07020630952380952        0        
C2        C        0.71875        0.851852        0.07020630952380952        0        
C2        C        0.78125        0.851852        0.07020630952380952        0        
C2        C        0.84375        0.851852        0.07020630952380952        0        
C2        C        0.9062500000000001        0.851852        0.07020630952380952        0        
C2        C        0.9687500000000001        0.851852        0.07020630952380952        0        
C3        C        0.0        0.87037        0.07020630952380952        0        
C3        C        0.0625        0.87037        0.07020630952380952        0        
C3        C        0.125        0.87037        0.07020630952380952        0        
C3        C        0.1875        0.87037        0.07020630952380952        0        
C3        C        0.25        0.87037        0.07020630952380952        0        
C3        C        0.3125        0.87037        0.07020630952380952        0        
C3        C        0.375        0.87037        0.07020630952380952        0        
C3        C        0.4375        0.87037        0.07020630952380952        0        
C3        C        0.5        0.87037        0.07020630952380952        0        
C3        C        0.5625        0.87037        0.07020630952380952        0        
C3        C        0.625        0.87037        0.07020630952380952        0        
C3        C        0.6875        0.87037        0.07020630952380952        0        
C3        C        0.75        0.87037        0.07020630952380952        0        
C3        C        0.8125        0.87037        0.07020630952380952        0        
C3        C        0.875        0.87037        0.07020630952380952        0        
C3        C        0.9375        0.87037        0.07020630952380952        0        
C4        C        0.03125        0.814814        0.07020630952380952        0        
C4        C        0.09375        0.814814        0.07020630952380952        0        
C4        C        0.15625        0.814814        0.07020630952380952        0        
C4        C        0.21875        0.814814        0.07020630952380952        0        
C4        C        0.28125        0.814814        0.07020630952380952        0        
C4        C        0.34375        0.814814        0.07020630952380952        0        
C4        C        0.40625        0.814814        0.07020630952380952        0        
C4        C        0.46875        0.814814        0.07020630952380952        0        
C4        C        0.53125        0.814814        0.07020630952380952        0        
C4        C        0.59375        0.814814        0.07020630952380952        0        
C4        C        0.65625        0.814814        0.07020630952380952        0        
C4        C        0.71875        0.814814        0.07020630952380952        0        
C4        C        0.78125        0.814814        0.07020630952380952        0        
C4        C        0.84375        0.814814        0.07020630952380952        0        
C4        C        0.9062500000000001        0.814814        0.07020630952380952        0        
C4        C        0.9687500000000001        0.814814        0.07020630952380952        0        
C_FG        C        0.0        0.907408        0.07020630952380952        0.2        
C1        C        0.0625        0.907408        0.07020630952380952        0        
C1        C        0.125        0.907408        0.07020630952380952        0        
C_FG        C        0.1875        0.907408        0.07020630952380952        0.2        
C1        C        0.25        0.907408        0.07020630952380952        0        
C1        C        0.3125        0.907408        0.07020630952380952        0        
C_FG        C        0.375        0.907408        0.07020630952380952        0.2        
C1        C        0.4375        0.907408        0.07020630952380952        0        
C1        C        0.5        0.907408        0.07020630952380952        0        
C_FG        C        0.5625        0.907408        0.07020630952380952        0.2        
C1        C        0.625        0.907408        0.07020630952380952        0        
C1        C        0.6875        0.907408        0.07020630952380952        0        
C_FG        C        0.75        0.907408        0.07020630952380952        0.2        
C1        C        0.8125        0.907408        0.07020630952380952        0        
C1        C        0.875        0.907408        0.07020630952380952        0        
C_FG        C        0.9375        0.907408        0.07020630952380952        0.2        
C2        C        0.03125        0.962963        0.07020630952380952        0        
C2        C        0.09375        0.962963        0.07020630952380952        0        
C2        C        0.15625        0.962963        0.07020630952380952        0        
C2        C        0.21875        0.962963        0.07020630952380952        0        
C2        C        0.28125        0.962963        0.07020630952380952        0        
C2        C        0.34375        0.962963        0.07020630952380952        0        
C2        C        0.40625        0.962963        0.07020630952380952        0        
C2        C        0.46875        0.962963        0.07020630952380952        0        
C2        C        0.53125        0.962963        0.07020630952380952        0        
C2        C        0.59375        0.962963        0.07020630952380952        0        
C2        C        0.65625        0.962963        0.07020630952380952        0        
C2        C        0.71875        0.962963        0.07020630952380952        0        
C2        C        0.78125        0.962963        0.07020630952380952        0        
C2        C        0.84375        0.962963        0.07020630952380952        0        
C2        C        0.9062500000000001        0.962963        0.07020630952380952        0        
C2        C        0.9687500000000001        0.962963        0.07020630952380952        0        
C3        C        0.0        0.9814809999999999        0.07020630952380952        0        
C3        C        0.0625        0.9814809999999999        0.07020630952380952        0        
C3        C        0.125        0.9814809999999999        0.07020630952380952        0        
C3        C        0.1875        0.9814809999999999        0.07020630952380952        0        
C3        C        0.25        0.9814809999999999        0.07020630952380952        0        
C3        C        0.3125        0.9814809999999999        0.07020630952380952        0        
C3        C        0.375        0.9814809999999999        0.07020630952380952        0        
C3        C        0.4375        0.9814809999999999        0.07020630952380952        0        
C3        C        0.5        0.9814809999999999        0.07020630952380952        0        
C3        C        0.5625        0.9814809999999999        0.07020630952380952        0        
C3        C        0.625        0.9814809999999999        0.07020630952380952        0        
C3        C        0.6875        0.9814809999999999        0.07020630952380952        0        
C3        C        0.75        0.9814809999999999        0.07020630952380952        0        
C3        C        0.8125        0.9814809999999999        0.07020630952380952        0        
C3        C        0.875        0.9814809999999999        0.07020630952380952        0        
C3        C        0.9375        0.9814809999999999        0.07020630952380952        0        
C4        C        0.03125        0.925925        0.07020630952380952        0        
C4        C        0.09375        0.925925        0.07020630952380952        0        
C4        C        0.15625        0.925925        0.07020630952380952        0        
C4        C        0.21875        0.925925        0.07020630952380952        0        
C4        C        0.28125        0.925925        0.07020630952380952        0        
C4        C        0.34375        0.925925        0.07020630952380952        0        
C4        C        0.40625        0.925925        0.07020630952380952        0        
C4        C        0.46875        0.925925        0.07020630952380952        0        
C4        C        0.53125        0.925925        0.07020630952380952        0        
C4        C        0.59375        0.925925        0.07020630952380952        0        
C4        C        0.65625        0.925925        0.07020630952380952        0        
C4        C        0.71875        0.925925        0.07020630952380952        0        
C4        C        0.78125        0.925925        0.07020630952380952        0        
C4        C        0.84375        0.925925        0.07020630952380952        0        
C4        C        0.9062500000000001        0.925925        0.07020630952380952        0        
C4        C        0.9687500000000001        0.925925        0.07020630952380952        0        
C1        C        0.0        0.018519        0.2031433095238095        0        
C2        C        0.03125        0.074075        0.2031433095238095        0        
C3        C        0.0        0.092592        0.2031433095238095        0        
C4        C        0.03125        0.037037        0.2031433095238095        0        
C1        C        0.0        0.12963        0.2031433095238095        0        
C2        C        0.03125        0.185185        0.2031433095238095        0        
C3        C        0.0        0.203703        0.2031433095238095        0        
C4        C        0.03125        0.148148        0.2031433095238095        0        
C1        C        0.0        0.24074099999999998        0.2031433095238095        0        
C2        C        0.03125        0.296297        0.2031433095238095        0        
C3        C        0.0        0.314815        0.2031433095238095        0        
C4        C        0.03125        0.259259        0.2031433095238095        0        
C1        C        0.0        0.351852        0.2031433095238095        0        
C2        C        0.03125        0.407408        0.2031433095238095        0        
C3        C        0.0        0.42592500000000005        0.2031433095238095        0        
C4        C        0.03125        0.37037        0.2031433095238095        0        
C1        C        0.0        0.46296300000000007        0.2031433095238095        0        
C2        C        0.03125        0.518519        0.2031433095238095        0        
C3        C        0.0        0.537037        0.2031433095238095        0        
C4        C        0.03125        0.481481        0.2031433095238095        0        
C1        C        0.0        0.574075        0.2031433095238095        0        
C2        C        0.03125        0.62963        0.2031433095238095        0        
C3        C        0.0        0.648148        0.2031433095238095        0        
C4        C        0.03125        0.592592        0.2031433095238095        0        
C1        C        0.0625        0.018519        0.2031433095238095        0        
C2        C        0.09375        0.074075        0.2031433095238095        0        
C3        C        0.0625        0.092592        0.2031433095238095        0        
C4        C        0.09375        0.037037        0.2031433095238095        0        
C1        C        0.0625        0.12963        0.2031433095238095        0        
C2        C        0.09375        0.185185        0.2031433095238095        0        
C3        C        0.0625        0.203703        0.2031433095238095        0        
C4        C        0.09375        0.148148        0.2031433095238095        0        
C1        C        0.0625        0.24074099999999998        0.2031433095238095        0        
C2        C        0.09375        0.296297        0.2031433095238095        0        
C3        C        0.0625        0.314815        0.2031433095238095        0        
C4        C        0.09375        0.259259        0.2031433095238095        0        
C1        C        0.0625        0.351852        0.2031433095238095        0        
C2        C        0.09375        0.407408        0.2031433095238095        0        
C3        C        0.0625        0.42592500000000005        0.2031433095238095        0        
C4        C        0.09375        0.37037        0.2031433095238095        0        
C1        C        0.0625        0.46296300000000007        0.2031433095238095        0        
C2        C        0.09375        0.518519        0.2031433095238095        0        
C3        C        0.0625        0.537037        0.2031433095238095        0        
C4        C        0.09375        0.481481        0.2031433095238095        0        
C1        C        0.0625        0.574075        0.2031433095238095        0        
C2        C        0.09375        0.62963        0.2031433095238095        0        
C3        C        0.0625        0.648148        0.2031433095238095        0        
C4        C        0.09375        0.592592        0.2031433095238095        0        
C1        C        0.125        0.018519        0.2031433095238095        0        
C2        C        0.15625        0.074075        0.2031433095238095        0        
C3        C        0.125        0.092592        0.2031433095238095        0        
C4        C        0.15625        0.037037        0.2031433095238095        0        
C1        C        0.125        0.12963        0.2031433095238095        0        
C2        C        0.15625        0.185185        0.2031433095238095        0        
C3        C        0.125        0.203703        0.2031433095238095        0        
C4        C        0.15625        0.148148        0.2031433095238095        0        
C1        C        0.125        0.24074099999999998        0.2031433095238095        0        
C2        C        0.15625        0.296297        0.2031433095238095        0        
C3        C        0.125        0.314815        0.2031433095238095        0        
C4        C        0.15625        0.259259        0.2031433095238095        0        
C1        C        0.125        0.351852        0.2031433095238095        0        
C2        C        0.15625        0.407408        0.2031433095238095        0        
C3        C        0.125        0.42592500000000005        0.2031433095238095        0        
C4        C        0.15625        0.37037        0.2031433095238095        0        
C1        C        0.125        0.46296300000000007        0.2031433095238095        0        
C2        C        0.15625        0.518519        0.2031433095238095        0        
C3        C        0.125        0.537037        0.2031433095238095        0        
C4        C        0.15625        0.481481        0.2031433095238095        0        
C1        C        0.125        0.574075        0.2031433095238095        0        
C2        C        0.15625        0.62963        0.2031433095238095        0        
C3        C        0.125        0.648148        0.2031433095238095        0        
C4        C        0.15625        0.592592        0.2031433095238095        0        
C1        C        0.1875        0.018519        0.2031433095238095        0        
C2        C        0.21875        0.074075        0.2031433095238095        0        
C3        C        0.1875        0.092592        0.2031433095238095        0        
C4        C        0.21875        0.037037        0.2031433095238095        0        
C1        C        0.1875        0.12963        0.2031433095238095        0        
C2        C        0.21875        0.185185        0.2031433095238095        0        
C3        C        0.1875        0.203703        0.2031433095238095        0        
C4        C        0.21875        0.148148        0.2031433095238095        0        
C1        C        0.1875        0.24074099999999998        0.2031433095238095        0        
C2        C        0.21875        0.296297        0.2031433095238095        0        
C3        C        0.1875        0.314815        0.2031433095238095        0        
C4        C        0.21875        0.259259        0.2031433095238095        0        
C1        C        0.1875        0.351852        0.2031433095238095        0        
C2        C        0.21875        0.407408        0.2031433095238095        0        
C3        C        0.1875        0.42592500000000005        0.2031433095238095        0        
C4        C        0.21875        0.37037        0.2031433095238095        0        
C1        C        0.1875        0.46296300000000007        0.2031433095238095        0        
C2        C        0.21875        0.518519        0.2031433095238095        0        
C3        C        0.1875        0.537037        0.2031433095238095        0        
C4        C        0.21875        0.481481        0.2031433095238095        0        
C1        C        0.1875        0.574075        0.2031433095238095        0        
C2        C        0.21875        0.62963        0.2031433095238095        0        
C3        C        0.1875        0.648148        0.2031433095238095        0        
C4        C        0.21875        0.592592        0.2031433095238095        0        
C1        C        0.25        0.018519        0.2031433095238095        0        
C2        C        0.28125        0.074075        0.2031433095238095        0        
C3        C        0.25        0.092592        0.2031433095238095        0        
C4        C        0.28125        0.037037        0.2031433095238095        0        
C1        C        0.25        0.12963        0.2031433095238095        0        
C2        C        0.28125        0.185185        0.2031433095238095        0        
C3        C        0.25        0.203703        0.2031433095238095        0        
C4        C        0.28125        0.148148        0.2031433095238095        0        
C1        C        0.25        0.24074099999999998        0.2031433095238095        0        
C2        C        0.28125        0.296297        0.2031433095238095        0        
C3        C        0.25        0.314815        0.2031433095238095        0        
C4        C        0.28125        0.259259        0.2031433095238095        0        
C1        C        0.25        0.351852        0.2031433095238095        0        
C2        C        0.28125        0.407408        0.2031433095238095        0        
C3        C        0.25        0.42592500000000005        0.2031433095238095        0        
C4        C        0.28125        0.37037        0.2031433095238095        0        
C1        C        0.25        0.46296300000000007        0.2031433095238095        0        
C2        C        0.28125        0.518519        0.2031433095238095        0        
C3        C        0.25        0.537037        0.2031433095238095        0        
C4        C        0.28125        0.481481        0.2031433095238095        0        
C1        C        0.25        0.574075        0.2031433095238095        0        
C2        C        0.28125        0.62963        0.2031433095238095        0        
C3        C        0.25        0.648148        0.2031433095238095        0        
C4        C        0.28125        0.592592        0.2031433095238095        0        
C1        C        0.3125        0.018519        0.2031433095238095        0        
C2        C        0.34375        0.074075        0.2031433095238095        0        
C3        C        0.3125        0.092592        0.2031433095238095        0        
C4        C        0.34375        0.037037        0.2031433095238095        0        
C1        C        0.3125        0.12963        0.2031433095238095        0        
C2        C        0.34375        0.185185        0.2031433095238095        0        
C3        C        0.3125        0.203703        0.2031433095238095        0        
C4        C        0.34375        0.148148        0.2031433095238095        0        
C1        C        0.3125        0.24074099999999998        0.2031433095238095        0        
C2        C        0.34375        0.296297        0.2031433095238095        0        
C3        C        0.3125        0.314815        0.2031433095238095        0        
C4        C        0.34375        0.259259        0.2031433095238095        0        
C1        C        0.3125        0.351852        0.2031433095238095        0        
C2        C        0.34375        0.407408        0.2031433095238095        0        
C3        C        0.3125        0.42592500000000005        0.2031433095238095        0        
C4        C        0.34375        0.37037        0.2031433095238095        0        
C1        C        0.3125        0.46296300000000007        0.2031433095238095        0        
C2        C        0.34375        0.518519        0.2031433095238095        0        
C3        C        0.3125        0.537037        0.2031433095238095        0        
C4        C        0.34375        0.481481        0.2031433095238095        0        
C1        C        0.3125        0.574075        0.2031433095238095        0        
C2        C        0.34375        0.62963        0.2031433095238095        0        
C3        C        0.3125        0.648148        0.2031433095238095        0        
C4        C        0.34375        0.592592        0.2031433095238095        0        
C1        C        0.375        0.018519        0.2031433095238095        0        
C2        C        0.40625        0.074075        0.2031433095238095        0        
C3        C        0.375        0.092592        0.2031433095238095        0        
C4        C        0.40625        0.037037        0.2031433095238095        0        
C1        C        0.375        0.12963        0.2031433095238095        0        
C2        C        0.40625        0.185185        0.2031433095238095        0        
C3        C        0.375        0.203703        0.2031433095238095        0        
C4        C        0.40625        0.148148        0.2031433095238095        0        
C1        C        0.375        0.24074099999999998        0.2031433095238095        0        
C2        C        0.40625        0.296297        0.2031433095238095        0        
C3        C        0.375        0.314815        0.2031433095238095        0        
C4        C        0.40625        0.259259        0.2031433095238095        0        
C1        C        0.375        0.351852        0.2031433095238095        0        
C2        C        0.40625        0.407408        0.2031433095238095        0        
C3        C        0.375        0.42592500000000005        0.2031433095238095        0        
C4        C        0.40625        0.37037        0.2031433095238095        0        
C1        C        0.375        0.46296300000000007        0.2031433095238095        0        
C2        C        0.40625        0.518519        0.2031433095238095        0        
C3        C        0.375        0.537037        0.2031433095238095        0        
C4        C        0.40625        0.481481        0.2031433095238095        0        
C1        C        0.375        0.574075        0.2031433095238095        0        
C2        C        0.40625        0.62963        0.2031433095238095        0        
C3        C        0.375        0.648148        0.2031433095238095        0        
C4        C        0.40625        0.592592        0.2031433095238095        0        
C1        C        0.4375        0.018519        0.2031433095238095        0        
C2        C        0.46875        0.074075        0.2031433095238095        0        
C3        C        0.4375        0.092592        0.2031433095238095        0        
C4        C        0.46875        0.037037        0.2031433095238095        0        
C1        C        0.4375        0.12963        0.2031433095238095        0        
C2        C        0.46875        0.185185        0.2031433095238095        0        
C3        C        0.4375        0.203703        0.2031433095238095        0        
C4        C        0.46875        0.148148        0.2031433095238095        0        
C1        C        0.4375        0.24074099999999998        0.2031433095238095        0        
C2        C        0.46875        0.296297        0.2031433095238095        0        
C3        C        0.4375        0.314815        0.2031433095238095        0        
C4        C        0.46875        0.259259        0.2031433095238095        0        
C1        C        0.4375        0.351852        0.2031433095238095        0        
C2        C        0.46875        0.407408        0.2031433095238095        0        
C3        C        0.4375        0.42592500000000005        0.2031433095238095        0        
C4        C        0.46875        0.37037        0.2031433095238095        0        
C1        C        0.4375        0.46296300000000007        0.2031433095238095        0        
C2        C        0.46875        0.518519        0.2031433095238095        0        
C3        C        0.4375        0.537037        0.2031433095238095        0        
C4        C        0.46875        0.481481        0.2031433095238095        0        
C1        C        0.4375        0.574075        0.2031433095238095        0        
C2        C        0.46875        0.62963        0.2031433095238095        0        
C3        C        0.4375        0.648148        0.2031433095238095        0        
C4        C        0.46875        0.592592        0.2031433095238095        0        
C1        C        0.5        0.018519        0.2031433095238095        0        
C2        C        0.53125        0.074075        0.2031433095238095        0        
C3        C        0.5        0.092592        0.2031433095238095        0        
C4        C        0.53125        0.037037        0.2031433095238095        0        
C1        C        0.5        0.12963        0.2031433095238095        0        
C2        C        0.53125        0.185185        0.2031433095238095        0        
C3        C        0.5        0.203703        0.2031433095238095        0        
C4        C        0.53125        0.148148        0.2031433095238095        0        
C1        C        0.5        0.24074099999999998        0.2031433095238095        0        
C2        C        0.53125        0.296297        0.2031433095238095        0        
C3        C        0.5        0.314815        0.2031433095238095        0        
C4        C        0.53125        0.259259        0.2031433095238095        0        
C1        C        0.5        0.351852        0.2031433095238095        0        
C2        C        0.53125        0.407408        0.2031433095238095        0        
C3        C        0.5        0.42592500000000005        0.2031433095238095        0        
C4        C        0.53125        0.37037        0.2031433095238095        0        
C1        C        0.5        0.46296300000000007        0.2031433095238095        0        
C2        C        0.53125        0.518519        0.2031433095238095        0        
C3        C        0.5        0.537037        0.2031433095238095        0        
C4        C        0.53125        0.481481        0.2031433095238095        0        
C1        C        0.5        0.574075        0.2031433095238095        0        
C2        C        0.53125        0.62963        0.2031433095238095        0        
C3        C        0.5        0.648148        0.2031433095238095        0        
C4        C        0.53125        0.592592        0.2031433095238095        0        
C1        C        0.5625        0.018519        0.2031433095238095        0        
C2        C        0.59375        0.074075        0.2031433095238095        0        
C3        C        0.5625        0.092592        0.2031433095238095        0        
C4        C        0.59375        0.037037        0.2031433095238095        0        
C1        C        0.5625        0.12963        0.2031433095238095        0        
C2        C        0.59375        0.185185        0.2031433095238095        0        
C3        C        0.5625        0.203703        0.2031433095238095        0        
C4        C        0.59375        0.148148        0.2031433095238095        0        
C1        C        0.5625        0.24074099999999998        0.2031433095238095        0        
C2        C        0.59375        0.296297        0.2031433095238095        0        
C3        C        0.5625        0.314815        0.2031433095238095        0        
C4        C        0.59375        0.259259        0.2031433095238095        0        
C1        C        0.5625        0.351852        0.2031433095238095        0        
C2        C        0.59375        0.407408        0.2031433095238095        0        
C3        C        0.5625        0.42592500000000005        0.2031433095238095        0        
C4        C        0.59375        0.37037        0.2031433095238095        0        
C1        C        0.5625        0.46296300000000007        0.2031433095238095        0        
C2        C        0.59375        0.518519        0.2031433095238095        0        
C3        C        0.5625        0.537037        0.2031433095238095        0        
C4        C        0.59375        0.481481        0.2031433095238095        0        
C1        C        0.5625        0.574075        0.2031433095238095        0        
C2        C        0.59375        0.62963        0.2031433095238095        0        
C3        C        0.5625        0.648148        0.2031433095238095        0        
C4        C        0.59375        0.592592        0.2031433095238095        0        
C1        C        0.625        0.018519        0.2031433095238095        0        
C2        C        0.65625        0.074075        0.2031433095238095        0        
C3        C        0.625        0.092592        0.2031433095238095        0        
C4        C        0.65625        0.037037        0.2031433095238095        0        
C1        C        0.625        0.12963        0.2031433095238095        0        
C2        C        0.65625        0.185185        0.2031433095238095        0        
C3        C        0.625        0.203703        0.2031433095238095        0        
C4        C        0.65625        0.148148        0.2031433095238095        0        
C1        C        0.625        0.24074099999999998        0.2031433095238095        0        
C2        C        0.65625        0.296297        0.2031433095238095        0        
C3        C        0.625        0.314815        0.2031433095238095        0        
C4        C        0.65625        0.259259        0.2031433095238095        0        
C1        C        0.625        0.351852        0.2031433095238095        0        
C2        C        0.65625        0.407408        0.2031433095238095        0        
C3        C        0.625        0.42592500000000005        0.2031433095238095        0        
C4        C        0.65625        0.37037        0.2031433095238095        0        
C1        C        0.625        0.46296300000000007        0.2031433095238095        0        
C2        C        0.65625        0.518519        0.2031433095238095        0        
C3        C        0.625        0.537037        0.2031433095238095        0        
C4        C        0.65625        0.481481        0.2031433095238095        0        
C1        C        0.625        0.574075        0.2031433095238095        0        
C2        C        0.65625        0.62963        0.2031433095238095        0        
C3        C        0.625        0.648148        0.2031433095238095        0        
C4        C        0.65625        0.592592        0.2031433095238095        0        
C1        C        0.6875        0.018519        0.2031433095238095        0        
C2        C        0.71875        0.074075        0.2031433095238095        0        
C3        C        0.6875        0.092592        0.2031433095238095        0        
C4        C        0.71875        0.037037        0.2031433095238095        0        
C1        C        0.6875        0.12963        0.2031433095238095        0        
C2        C        0.71875        0.185185        0.2031433095238095        0        
C3        C        0.6875        0.203703        0.2031433095238095        0        
C4        C        0.71875        0.148148        0.2031433095238095        0        
C1        C        0.6875        0.24074099999999998        0.2031433095238095        0        
C2        C        0.71875        0.296297        0.2031433095238095        0        
C3        C        0.6875        0.314815        0.2031433095238095        0        
C4        C        0.71875        0.259259        0.2031433095238095        0        
C1        C        0.6875        0.351852        0.2031433095238095        0        
C2        C        0.71875        0.407408        0.2031433095238095        0        
C3        C        0.6875        0.42592500000000005        0.2031433095238095        0        
C4        C        0.71875        0.37037        0.2031433095238095        0        
C1        C        0.6875        0.46296300000000007        0.2031433095238095        0        
C2        C        0.71875        0.518519        0.2031433095238095        0        
C3        C        0.6875        0.537037        0.2031433095238095        0        
C4        C        0.71875        0.481481        0.2031433095238095        0        
C1        C        0.6875        0.574075        0.2031433095238095        0        
C2        C        0.71875        0.62963        0.2031433095238095        0        
C3        C        0.6875        0.648148        0.2031433095238095        0        
C4        C        0.71875        0.592592        0.2031433095238095        0        
C1        C        0.75        0.018519        0.2031433095238095        0        
C2        C        0.78125        0.074075        0.2031433095238095        0        
C3        C        0.75        0.092592        0.2031433095238095        0        
C4        C        0.78125        0.037037        0.2031433095238095        0        
C1        C        0.75        0.12963        0.2031433095238095        0        
C2        C        0.78125        0.185185        0.2031433095238095        0        
C3        C        0.75        0.203703        0.2031433095238095        0        
C4        C        0.78125        0.148148        0.2031433095238095        0        
C1        C        0.75        0.24074099999999998        0.2031433095238095        0        
C2        C        0.78125        0.296297        0.2031433095238095        0        
C3        C        0.75        0.314815        0.2031433095238095        0        
C4        C        0.78125        0.259259        0.2031433095238095        0        
C1        C        0.75        0.351852        0.2031433095238095        0        
C2        C        0.78125        0.407408        0.2031433095238095        0        
C3        C        0.75        0.42592500000000005        0.2031433095238095        0        
C4        C        0.78125        0.37037        0.2031433095238095        0        
C1        C        0.75        0.46296300000000007        0.2031433095238095        0        
C2        C        0.78125        0.518519        0.2031433095238095        0        
C3        C        0.75        0.537037        0.2031433095238095        0        
C4        C        0.78125        0.481481        0.2031433095238095        0        
C1        C        0.75        0.574075        0.2031433095238095        0        
C2        C        0.78125        0.62963        0.2031433095238095        0        
C3        C        0.75        0.648148        0.2031433095238095        0        
C4        C        0.78125        0.592592        0.2031433095238095        0        
C1        C        0.8125        0.018519        0.2031433095238095        0        
C2        C        0.84375        0.074075        0.2031433095238095        0        
C3        C        0.8125        0.092592        0.2031433095238095        0        
C4        C        0.84375        0.037037        0.2031433095238095        0        
C1        C        0.8125        0.12963        0.2031433095238095        0        
C2        C        0.84375        0.185185        0.2031433095238095        0        
C3        C        0.8125        0.203703        0.2031433095238095        0        
C4        C        0.84375        0.148148        0.2031433095238095        0        
C1        C        0.8125        0.24074099999999998        0.2031433095238095        0        
C2        C        0.84375        0.296297        0.2031433095238095        0        
C3        C        0.8125        0.314815        0.2031433095238095        0        
C4        C        0.84375        0.259259        0.2031433095238095        0        
C1        C        0.8125        0.351852        0.2031433095238095        0        
C2        C        0.84375        0.407408        0.2031433095238095        0        
C3        C        0.8125        0.42592500000000005        0.2031433095238095        0        
C4        C        0.84375        0.37037        0.2031433095238095        0        
C1        C        0.8125        0.46296300000000007        0.2031433095238095        0        
C2        C        0.84375        0.518519        0.2031433095238095        0        
C3        C        0.8125        0.537037        0.2031433095238095        0        
C4        C        0.84375        0.481481        0.2031433095238095        0        
C1        C        0.8125        0.574075        0.2031433095238095        0        
C2        C        0.84375        0.62963        0.2031433095238095        0        
C3        C        0.8125        0.648148        0.2031433095238095        0        
C4        C        0.84375        0.592592        0.2031433095238095        0        
C1        C        0.875        0.018519        0.2031433095238095        0        
C2        C        0.9062500000000001        0.074075        0.2031433095238095        0        
C3        C        0.875        0.092592        0.2031433095238095        0        
C4        C        0.9062500000000001        0.037037        0.2031433095238095        0        
C1        C        0.875        0.12963        0.2031433095238095        0        
C2        C        0.9062500000000001        0.185185        0.2031433095238095        0        
C3        C        0.875        0.203703        0.2031433095238095        0        
C4        C        0.9062500000000001        0.148148        0.2031433095238095        0        
C1        C        0.875        0.24074099999999998        0.2031433095238095        0        
C2        C        0.9062500000000001        0.296297        0.2031433095238095        0        
C3        C        0.875        0.314815        0.2031433095238095        0        
C4        C        0.9062500000000001        0.259259        0.2031433095238095        0        
C1        C        0.875        0.351852        0.2031433095238095        0        
C2        C        0.9062500000000001        0.407408        0.2031433095238095        0        
C3        C        0.875        0.42592500000000005        0.2031433095238095        0        
C4        C        0.9062500000000001        0.37037        0.2031433095238095        0        
C1        C        0.875        0.46296300000000007        0.2031433095238095        0        
C2        C        0.9062500000000001        0.518519        0.2031433095238095        0        
C3        C        0.875        0.537037        0.2031433095238095        0        
C4        C        0.9062500000000001        0.481481        0.2031433095238095        0        
C1        C        0.875        0.574075        0.2031433095238095        0        
C2        C        0.9062500000000001        0.62963        0.2031433095238095        0        
C3        C        0.875        0.648148        0.2031433095238095        0        
C4        C        0.9062500000000001        0.592592        0.2031433095238095        0        
C1        C        0.9375        0.018519        0.2031433095238095        0        
C2        C        0.9687500000000001        0.074075        0.2031433095238095        0        
C3        C        0.9375        0.092592        0.2031433095238095        0        
C4        C        0.9687500000000001        0.037037        0.2031433095238095        0        
C1        C        0.9375        0.12963        0.2031433095238095        0        
C2        C        0.9687500000000001        0.185185        0.2031433095238095        0        
C3        C        0.9375        0.203703        0.2031433095238095        0        
C4        C        0.9687500000000001        0.148148        0.2031433095238095        0        
C1        C        0.9375        0.24074099999999998        0.2031433095238095        0        
C2        C        0.9687500000000001        0.296297        0.2031433095238095        0        
C3        C        0.9375        0.314815        0.2031433095238095        0        
C4        C        0.9687500000000001        0.259259        0.2031433095238095        0        
C1        C        0.9375        0.351852        0.2031433095238095        0        
C2        C        0.9687500000000001        0.407408        0.2031433095238095        0        
C3        C        0.9375        0.42592500000000005        0.2031433095238095        0        
C4        C        0.9687500000000001        0.37037        0.2031433095238095        0        
C1        C        0.9375        0.46296300000000007        0.2031433095238095        0        
C2        C        0.9687500000000001        0.518519        0.2031433095238095        0        
C3        C        0.9375        0.537037        0.2031433095238095        0        
C4        C        0.9687500000000001        0.481481        0.2031433095238095        0        
C1        C        0.9375        0.574075        0.2031433095238095        0        
C2        C        0.9687500000000001        0.62963        0.2031433095238095        0        
C3        C        0.9375        0.648148        0.2031433095238095        0        
C4        C        0.9687500000000001        0.592592        0.2031433095238095        0        
C1        C        0.0        0.685186        0.2031433095238095        0        
C1        C        0.0625        0.685186        0.2031433095238095        0        
C1        C        0.125        0.685186        0.2031433095238095        0        
C1        C        0.1875        0.685186        0.2031433095238095        0        
C1        C        0.25        0.685186        0.2031433095238095        0        
C1        C        0.3125        0.685186        0.2031433095238095        0        
C1        C        0.375        0.685186        0.2031433095238095        0        
C1        C        0.4375        0.685186        0.2031433095238095        0        
C1        C        0.5        0.685186        0.2031433095238095        0        
C1        C        0.5625        0.685186        0.2031433095238095        0        
C1        C        0.625        0.685186        0.2031433095238095        0        
C1        C        0.6875        0.685186        0.2031433095238095        0        
C1        C        0.75        0.685186        0.2031433095238095        0        
C1        C        0.8125        0.685186        0.2031433095238095        0        
C1        C        0.875        0.685186        0.2031433095238095        0        
C1        C        0.9375        0.685186        0.2031433095238095        0        
C2        C        0.03125        0.740741        0.2031433095238095        0        
C2        C        0.09375        0.740741        0.2031433095238095        0        
C2        C        0.15625        0.740741        0.2031433095238095        0        
C2        C        0.21875        0.740741        0.2031433095238095        0        
C2        C        0.28125        0.740741        0.2031433095238095        0        
C2        C        0.34375        0.740741        0.2031433095238095        0        
C2        C        0.40625        0.740741        0.2031433095238095        0        
C2        C        0.46875        0.740741        0.2031433095238095        0        
C2        C        0.53125        0.740741        0.2031433095238095        0        
C2        C        0.59375        0.740741        0.2031433095238095        0        
C2        C        0.65625        0.740741        0.2031433095238095        0        
C2        C        0.71875        0.740741        0.2031433095238095        0        
C2        C        0.78125        0.740741        0.2031433095238095        0        
C2        C        0.84375        0.740741        0.2031433095238095        0        
C2        C        0.9062500000000001        0.740741        0.2031433095238095        0        
C2        C        0.9687500000000001        0.740741        0.2031433095238095        0        
C3        C        0.0        0.759259        0.2031433095238095        0        
C3        C        0.0625        0.759259        0.2031433095238095        0        
C3        C        0.125        0.759259        0.2031433095238095        0        
C3        C        0.1875        0.759259        0.2031433095238095        0        
C3        C        0.25        0.759259        0.2031433095238095        0        
C3        C        0.3125        0.759259        0.2031433095238095        0        
C3        C        0.375        0.759259        0.2031433095238095        0        
C3        C        0.4375        0.759259        0.2031433095238095        0        
C3        C        0.5        0.759259        0.2031433095238095        0        
C3        C        0.5625        0.759259        0.2031433095238095        0        
C3        C        0.625        0.759259        0.2031433095238095        0        
C3        C        0.6875        0.759259        0.2031433095238095        0        
C3        C        0.75        0.759259        0.2031433095238095        0        
C3        C        0.8125        0.759259        0.2031433095238095        0        
C3        C        0.875        0.759259        0.2031433095238095        0        
C3        C        0.9375        0.759259        0.2031433095238095        0        
C4        C        0.03125        0.703703        0.2031433095238095        0        
C4        C        0.09375        0.703703        0.2031433095238095        0        
C4        C        0.15625        0.703703        0.2031433095238095        0        
C4        C        0.21875        0.703703        0.2031433095238095        0        
C4        C        0.28125        0.703703        0.2031433095238095        0        
C4        C        0.34375        0.703703        0.2031433095238095        0        
C4        C        0.40625        0.703703        0.2031433095238095        0        
C4        C        0.46875        0.703703        0.2031433095238095        0        
C4        C        0.53125        0.703703        0.2031433095238095        0        
C4        C        0.59375        0.703703        0.2031433095238095        0        
C4        C        0.65625        0.703703        0.2031433095238095        0        
C4        C        0.71875        0.703703        0.2031433095238095        0        
C4        C        0.78125        0.703703        0.2031433095238095        0        
C4        C        0.84375        0.703703        0.2031433095238095        0        
C4        C        0.9062500000000001        0.703703        0.2031433095238095        0        
C4        C        0.9687500000000001        0.703703        0.2031433095238095        0        
C1        C        0.0        0.796297        0.2031433095238095        0        
C1        C        0.0625        0.796297        0.2031433095238095        0        
C1        C        0.125        0.796297        0.2031433095238095        0        
C1        C        0.1875        0.796297        0.2031433095238095        0        
C1        C        0.25        0.796297        0.2031433095238095        0        
C1        C        0.3125        0.796297        0.2031433095238095        0        
C1        C        0.375        0.796297        0.2031433095238095        0        
C1        C        0.4375        0.796297        0.2031433095238095        0        
C1        C        0.5        0.796297        0.2031433095238095        0        
C1        C        0.5625        0.796297        0.2031433095238095        0        
C1        C        0.625        0.796297        0.2031433095238095        0        
C1        C        0.6875        0.796297        0.2031433095238095        0        
C1        C        0.75        0.796297        0.2031433095238095        0        
C1        C        0.8125        0.796297        0.2031433095238095        0        
C1        C        0.875        0.796297        0.2031433095238095        0        
C1        C        0.9375        0.796297        0.2031433095238095        0        
C2        C        0.03125        0.851852        0.2031433095238095        0        
C2        C        0.09375        0.851852        0.2031433095238095        0        
C2        C        0.15625        0.851852        0.2031433095238095        0        
C2        C        0.21875        0.851852        0.2031433095238095        0        
C2        C        0.28125        0.851852        0.2031433095238095        0        
C2        C        0.34375        0.851852        0.2031433095238095        0        
C2        C        0.40625        0.851852        0.2031433095238095        0        
C2        C        0.46875        0.851852        0.2031433095238095        0        
C2        C        0.53125        0.851852        0.2031433095238095        0        
C2        C        0.59375        0.851852        0.2031433095238095        0        
C2        C        0.65625        0.851852        0.2031433095238095        0        
C2        C        0.71875        0.851852        0.2031433095238095        0        
C2        C        0.78125        0.851852        0.2031433095238095        0        
C2        C        0.84375        0.851852        0.2031433095238095        0        
C2        C        0.9062500000000001        0.851852        0.2031433095238095        0        
C2        C        0.9687500000000001        0.851852        0.2031433095238095        0        
C3        C        0.0        0.87037        0.2031433095238095        0        
C3        C        0.0625        0.87037        0.2031433095238095        0        
C3        C        0.125        0.87037        0.2031433095238095        0        
C3        C        0.1875        0.87037        0.2031433095238095        0        
C3        C        0.25        0.87037        0.2031433095238095        0        
C3        C        0.3125        0.87037        0.2031433095238095        0        
C3        C        0.375        0.87037        0.2031433095238095        0        
C3        C        0.4375        0.87037        0.2031433095238095        0        
C3        C        0.5        0.87037        0.2031433095238095        0        
C3        C        0.5625        0.87037        0.2031433095238095        0        
C3        C        0.625        0.87037        0.2031433095238095        0        
C3        C        0.6875        0.87037        0.2031433095238095        0        
C3        C        0.75        0.87037        0.2031433095238095        0        
C3        C        0.8125        0.87037        0.2031433095238095        0        
C3        C        0.875        0.87037        0.2031433095238095        0        
C3        C        0.9375        0.87037        0.2031433095238095        0        
C4        C        0.03125        0.814814        0.2031433095238095        0        
C4        C        0.09375        0.814814        0.2031433095238095        0        
C4        C        0.15625        0.814814        0.2031433095238095        0        
C4        C        0.21875        0.814814        0.2031433095238095        0        
C4        C        0.28125        0.814814        0.2031433095238095        0        
C4        C        0.34375        0.814814        0.2031433095238095        0        
C4        C        0.40625        0.814814        0.2031433095238095        0        
C4        C        0.46875        0.814814        0.2031433095238095        0        
C4        C        0.53125        0.814814        0.2031433095238095        0        
C4        C        0.59375        0.814814        0.2031433095238095        0        
C4        C        0.65625        0.814814        0.2031433095238095        0        
C4        C        0.71875        0.814814        0.2031433095238095        0        
C4        C        0.78125        0.814814        0.2031433095238095        0        
C4        C        0.84375        0.814814        0.2031433095238095        0        
C4        C        0.9062500000000001        0.814814        0.2031433095238095        0        
C4        C        0.9687500000000001        0.814814        0.2031433095238095        0        
C1        C        0.0        0.907408        0.2031433095238095        0        
C1        C        0.0625        0.907408        0.2031433095238095        0        
C1        C        0.125        0.907408        0.2031433095238095        0        
C1        C        0.1875        0.907408        0.2031433095238095        0        
C1        C        0.25        0.907408        0.2031433095238095        0        
C1        C        0.3125        0.907408        0.2031433095238095        0        
C1        C        0.375        0.907408        0.2031433095238095        0        
C1        C        0.4375        0.907408        0.2031433095238095        0        
C1        C        0.5        0.907408        0.2031433095238095        0        
C1        C        0.5625        0.907408        0.2031433095238095        0        
C1        C        0.625        0.907408        0.2031433095238095        0        
C1        C        0.6875        0.907408        0.2031433095238095        0        
C1        C        0.75        0.907408        0.2031433095238095        0        
C1        C        0.8125        0.907408        0.2031433095238095        0        
C1        C        0.875        0.907408        0.2031433095238095        0        
C1        C        0.9375        0.907408        0.2031433095238095        0        
C2        C        0.03125        0.962963        0.2031433095238095        0        
C2        C        0.09375        0.962963        0.2031433095238095        0        
C2        C        0.15625        0.962963        0.2031433095238095        0        
C2        C        0.21875        0.962963        0.2031433095238095        0        
C2        C        0.28125        0.962963        0.2031433095238095        0        
C2        C        0.34375        0.962963        0.2031433095238095        0        
C2        C        0.40625        0.962963        0.2031433095238095        0        
C2        C        0.46875        0.962963        0.2031433095238095        0        
C2        C        0.53125        0.962963        0.2031433095238095        0        
C2        C        0.59375        0.962963        0.2031433095238095        0        
C2        C        0.65625        0.962963        0.2031433095238095        0        
C2        C        0.71875        0.962963        0.2031433095238095        0        
C2        C        0.78125        0.962963        0.2031433095238095        0        
C2        C        0.84375        0.962963        0.2031433095238095        0        
C2        C        0.9062500000000001        0.962963        0.2031433095238095        0        
C2        C        0.9687500000000001        0.962963        0.2031433095238095        0        
C3        C        0.0        0.9814809999999999        0.2031433095238095        0        
C3        C        0.0625        0.9814809999999999        0.2031433095238095        0        
C3        C        0.125        0.9814809999999999        0.2031433095238095        0        
C3        C        0.1875        0.9814809999999999        0.2031433095238095        0        
C3        C        0.25        0.9814809999999999        0.2031433095238095        0        
C3        C        0.3125        0.9814809999999999        0.2031433095238095        0        
C3        C        0.375        0.9814809999999999        0.2031433095238095        0        
C3        C        0.4375        0.9814809999999999        0.2031433095238095        0        
C3        C        0.5        0.9814809999999999        0.2031433095238095        0        
C3        C        0.5625        0.9814809999999999        0.2031433095238095        0        
C3        C        0.625        0.9814809999999999        0.2031433095238095        0        
C3        C        0.6875        0.9814809999999999        0.2031433095238095        0        
C3        C        0.75        0.9814809999999999        0.2031433095238095        0        
C3        C        0.8125        0.9814809999999999        0.2031433095238095        0        
C3        C        0.875        0.9814809999999999        0.2031433095238095        0        
C3        C        0.9375        0.9814809999999999        0.2031433095238095        0        
C4        C        0.03125        0.925925        0.2031433095238095        0        
C4        C        0.09375        0.925925        0.2031433095238095        0        
C4        C        0.15625        0.925925        0.2031433095238095        0        
C4        C        0.21875        0.925925        0.2031433095238095        0        
C4        C        0.28125        0.925925        0.2031433095238095        0        
C4        C        0.34375        0.925925        0.2031433095238095        0        
C4        C        0.40625        0.925925        0.2031433095238095        0        
C4        C        0.46875        0.925925        0.2031433095238095        0        
C4        C        0.53125        0.925925        0.2031433095238095        0        
C4        C        0.59375        0.925925        0.2031433095238095        0        
C4        C        0.65625        0.925925        0.2031433095238095        0        
C4        C        0.71875        0.925925        0.2031433095238095        0        
C4        C        0.78125        0.925925        0.2031433095238095        0        
C4        C        0.84375        0.925925        0.2031433095238095        0        
C4        C        0.9062500000000001        0.925925        0.2031433095238095        0        
C4        C        0.9687500000000001        0.925925        0.2031433095238095        0        
C_FG        C        0.0        0.018519        0.33607930952380954        0.2        
C2        C        0.03125        0.074075        0.33607930952380954        0        
C3        C        0.0        0.092592        0.33607930952380954        0        
C4        C        0.03125        0.037037        0.33607930952380954        0        
C1        C        0.0        0.12963        0.33607930952380954        0        
C2        C        0.03125        0.185185        0.33607930952380954        0        
C3        C        0.0        0.203703        0.33607930952380954        0        
C4        C        0.03125        0.148148        0.33607930952380954        0        
C_FG        C        0.0        0.24074099999999998        0.33607930952380954        0.2        
C2        C        0.03125        0.296297        0.33607930952380954        0        
C3        C        0.0        0.314815        0.33607930952380954        0        
C4        C        0.03125        0.259259        0.33607930952380954        0        
C1        C        0.0        0.351852        0.33607930952380954        0        
C2        C        0.03125        0.407408        0.33607930952380954        0        
C3        C        0.0        0.42592500000000005        0.33607930952380954        0        
C4        C        0.03125        0.37037        0.33607930952380954        0        
C_FG        C        0.0        0.46296300000000007        0.33607930952380954        0.2        
C2        C        0.03125        0.518519        0.33607930952380954        0        
C3        C        0.0        0.537037        0.33607930952380954        0        
C4        C        0.03125        0.481481        0.33607930952380954        0        
C1        C        0.0        0.574075        0.33607930952380954        0        
C2        C        0.03125        0.62963        0.33607930952380954        0        
C3        C        0.0        0.648148        0.33607930952380954        0        
C4        C        0.03125        0.592592        0.33607930952380954        0        
C1        C        0.0625        0.018519        0.33607930952380954        0        
C2        C        0.09375        0.074075        0.33607930952380954        0        
C3        C        0.0625        0.092592        0.33607930952380954        0        
C4        C        0.09375        0.037037        0.33607930952380954        0        
C1        C        0.0625        0.12963        0.33607930952380954        0        
C2        C        0.09375        0.185185        0.33607930952380954        0        
C3        C        0.0625        0.203703        0.33607930952380954        0        
C4        C        0.09375        0.148148        0.33607930952380954        0        
C1        C        0.0625        0.24074099999999998        0.33607930952380954        0        
C2        C        0.09375        0.296297        0.33607930952380954        0        
C3        C        0.0625        0.314815        0.33607930952380954        0        
C4        C        0.09375        0.259259        0.33607930952380954        0        
C1        C        0.0625        0.351852        0.33607930952380954        0        
C2        C        0.09375        0.407408        0.33607930952380954        0        
C3        C        0.0625        0.42592500000000005        0.33607930952380954        0        
C4        C        0.09375        0.37037        0.33607930952380954        0        
C1        C        0.0625        0.46296300000000007        0.33607930952380954        0        
C2        C        0.09375        0.518519        0.33607930952380954        0        
C3        C        0.0625        0.537037        0.33607930952380954        0        
C4        C        0.09375        0.481481        0.33607930952380954        0        
C1        C        0.0625        0.574075        0.33607930952380954        0        
C2        C        0.09375        0.62963        0.33607930952380954        0        
C3        C        0.0625        0.648148        0.33607930952380954        0        
C4        C        0.09375        0.592592        0.33607930952380954        0        
C1        C        0.125        0.018519        0.33607930952380954        0        
C2        C        0.15625        0.074075        0.33607930952380954        0        
C3        C        0.125        0.092592        0.33607930952380954        0        
C4        C        0.15625        0.037037        0.33607930952380954        0        
C1        C        0.125        0.12963        0.33607930952380954        0        
C2        C        0.15625        0.185185        0.33607930952380954        0        
C3        C        0.125        0.203703        0.33607930952380954        0        
C4        C        0.15625        0.148148        0.33607930952380954        0        
C1        C        0.125        0.24074099999999998        0.33607930952380954        0        
C2        C        0.15625        0.296297        0.33607930952380954        0        
C3        C        0.125        0.314815        0.33607930952380954        0        
C4        C        0.15625        0.259259        0.33607930952380954        0        
C1        C        0.125        0.351852        0.33607930952380954        0        
C2        C        0.15625        0.407408        0.33607930952380954        0        
C3        C        0.125        0.42592500000000005        0.33607930952380954        0        
C4        C        0.15625        0.37037        0.33607930952380954        0        
C1        C        0.125        0.46296300000000007        0.33607930952380954        0        
C2        C        0.15625        0.518519        0.33607930952380954        0        
C3        C        0.125        0.537037        0.33607930952380954        0        
C4        C        0.15625        0.481481        0.33607930952380954        0        
C1        C        0.125        0.574075        0.33607930952380954        0        
C2        C        0.15625        0.62963        0.33607930952380954        0        
C3        C        0.125        0.648148        0.33607930952380954        0        
C4        C        0.15625        0.592592        0.33607930952380954        0        
C_FG        C        0.1875        0.018519        0.33607930952380954        0.2        
C2        C        0.21875        0.074075        0.33607930952380954        0        
C3        C        0.1875        0.092592        0.33607930952380954        0        
C4        C        0.21875        0.037037        0.33607930952380954        0        
C1        C        0.1875        0.12963        0.33607930952380954        0        
C2        C        0.21875        0.185185        0.33607930952380954        0        
C3        C        0.1875        0.203703        0.33607930952380954        0        
C4        C        0.21875        0.148148        0.33607930952380954        0        
C_FG        C        0.1875        0.24074099999999998        0.33607930952380954        0.2        
C2        C        0.21875        0.296297        0.33607930952380954        0        
C3        C        0.1875        0.314815        0.33607930952380954        0        
C4        C        0.21875        0.259259        0.33607930952380954        0        
C1        C        0.1875        0.351852        0.33607930952380954        0        
C2        C        0.21875        0.407408        0.33607930952380954        0        
C3        C        0.1875        0.42592500000000005        0.33607930952380954        0        
C4        C        0.21875        0.37037        0.33607930952380954        0        
C_FG        C        0.1875        0.46296300000000007        0.33607930952380954        0.2        
C2        C        0.21875        0.518519        0.33607930952380954        0        
C3        C        0.1875        0.537037        0.33607930952380954        0        
C4        C        0.21875        0.481481        0.33607930952380954        0        
C1        C        0.1875        0.574075        0.33607930952380954        0        
C2        C        0.21875        0.62963        0.33607930952380954        0        
C3        C        0.1875        0.648148        0.33607930952380954        0        
C4        C        0.21875        0.592592        0.33607930952380954        0        
C1        C        0.25        0.018519        0.33607930952380954        0        
C2        C        0.28125        0.074075        0.33607930952380954        0        
C3        C        0.25        0.092592        0.33607930952380954        0        
C4        C        0.28125        0.037037        0.33607930952380954        0        
C1        C        0.25        0.12963        0.33607930952380954        0        
C2        C        0.28125        0.185185        0.33607930952380954        0        
C3        C        0.25        0.203703        0.33607930952380954        0        
C4        C        0.28125        0.148148        0.33607930952380954        0        
C1        C        0.25        0.24074099999999998        0.33607930952380954        0        
C2        C        0.28125        0.296297        0.33607930952380954        0        
C3        C        0.25        0.314815        0.33607930952380954        0        
C4        C        0.28125        0.259259        0.33607930952380954        0        
C1        C        0.25        0.351852        0.33607930952380954        0        
C2        C        0.28125        0.407408        0.33607930952380954        0        
C3        C        0.25        0.42592500000000005        0.33607930952380954        0        
C4        C        0.28125        0.37037        0.33607930952380954        0        
C1        C        0.25        0.46296300000000007        0.33607930952380954        0        
C2        C        0.28125        0.518519        0.33607930952380954        0        
C3        C        0.25        0.537037        0.33607930952380954        0        
C4        C        0.28125        0.481481        0.33607930952380954        0        
C1        C        0.25        0.574075        0.33607930952380954        0        
C2        C        0.28125        0.62963        0.33607930952380954        0        
C3        C        0.25        0.648148        0.33607930952380954        0        
C4        C        0.28125        0.592592        0.33607930952380954        0        
C1        C        0.3125        0.018519        0.33607930952380954        0        
C2        C        0.34375        0.074075        0.33607930952380954        0        
C3        C        0.3125        0.092592        0.33607930952380954        0        
C4        C        0.34375        0.037037        0.33607930952380954        0        
C1        C        0.3125        0.12963        0.33607930952380954        0        
C2        C        0.34375        0.185185        0.33607930952380954        0        
C3        C        0.3125        0.203703        0.33607930952380954        0        
C4        C        0.34375        0.148148        0.33607930952380954        0        
C1        C        0.3125        0.24074099999999998        0.33607930952380954        0        
C2        C        0.34375        0.296297        0.33607930952380954        0        
C3        C        0.3125        0.314815        0.33607930952380954        0        
C4        C        0.34375        0.259259        0.33607930952380954        0        
C1        C        0.3125        0.351852        0.33607930952380954        0        
C2        C        0.34375        0.407408        0.33607930952380954        0        
C3        C        0.3125        0.42592500000000005        0.33607930952380954        0        
C4        C        0.34375        0.37037        0.33607930952380954        0        
C1        C        0.3125        0.46296300000000007        0.33607930952380954        0        
C2        C        0.34375        0.518519        0.33607930952380954        0        
C3        C        0.3125        0.537037        0.33607930952380954        0        
C4        C        0.34375        0.481481        0.33607930952380954        0        
C1        C        0.3125        0.574075        0.33607930952380954        0        
C2        C        0.34375        0.62963        0.33607930952380954        0        
C3        C        0.3125        0.648148        0.33607930952380954        0        
C4        C        0.34375        0.592592        0.33607930952380954        0        
C_FG        C        0.375        0.018519        0.33607930952380954        0.2        
C2        C        0.40625        0.074075        0.33607930952380954        0        
C3        C        0.375        0.092592        0.33607930952380954        0        
C4        C        0.40625        0.037037        0.33607930952380954        0        
C1        C        0.375        0.12963        0.33607930952380954        0        
C2        C        0.40625        0.185185        0.33607930952380954        0        
C3        C        0.375        0.203703        0.33607930952380954        0        
C4        C        0.40625        0.148148        0.33607930952380954        0        
C_FG        C        0.375        0.24074099999999998        0.33607930952380954        0.2        
C2        C        0.40625        0.296297        0.33607930952380954        0        
C3        C        0.375        0.314815        0.33607930952380954        0        
C4        C        0.40625        0.259259        0.33607930952380954        0        
C1        C        0.375        0.351852        0.33607930952380954        0        
C2        C        0.40625        0.407408        0.33607930952380954        0        
C3        C        0.375        0.42592500000000005        0.33607930952380954        0        
C4        C        0.40625        0.37037        0.33607930952380954        0        
C_FG        C        0.375        0.46296300000000007        0.33607930952380954        0.2        
C2        C        0.40625        0.518519        0.33607930952380954        0        
C3        C        0.375        0.537037        0.33607930952380954        0        
C4        C        0.40625        0.481481        0.33607930952380954        0        
C1        C        0.375        0.574075        0.33607930952380954        0        
C2        C        0.40625        0.62963        0.33607930952380954        0        
C3        C        0.375        0.648148        0.33607930952380954        0        
C4        C        0.40625        0.592592        0.33607930952380954        0        
C1        C        0.4375        0.018519        0.33607930952380954        0        
C2        C        0.46875        0.074075        0.33607930952380954        0        
C3        C        0.4375        0.092592        0.33607930952380954        0        
C4        C        0.46875        0.037037        0.33607930952380954        0        
C1        C        0.4375        0.12963        0.33607930952380954        0        
C2        C        0.46875        0.185185        0.33607930952380954        0        
C3        C        0.4375        0.203703        0.33607930952380954        0        
C4        C        0.46875        0.148148        0.33607930952380954        0        
C1        C        0.4375        0.24074099999999998        0.33607930952380954        0        
C2        C        0.46875        0.296297        0.33607930952380954        0        
C3        C        0.4375        0.314815        0.33607930952380954        0        
C4        C        0.46875        0.259259        0.33607930952380954        0        
C1        C        0.4375        0.351852        0.33607930952380954        0        
C2        C        0.46875        0.407408        0.33607930952380954        0        
C3        C        0.4375        0.42592500000000005        0.33607930952380954        0        
C4        C        0.46875        0.37037        0.33607930952380954        0        
C1        C        0.4375        0.46296300000000007        0.33607930952380954        0        
C2        C        0.46875        0.518519        0.33607930952380954        0        
C3        C        0.4375        0.537037        0.33607930952380954        0        
C4        C        0.46875        0.481481        0.33607930952380954        0        
C1        C        0.4375        0.574075        0.33607930952380954        0        
C2        C        0.46875        0.62963        0.33607930952380954        0        
C3        C        0.4375        0.648148        0.33607930952380954        0        
C4        C        0.46875        0.592592        0.33607930952380954        0        
C1        C        0.5        0.018519        0.33607930952380954        0        
C2        C        0.53125        0.074075        0.33607930952380954        0        
C3        C        0.5        0.092592        0.33607930952380954        0        
C4        C        0.53125        0.037037        0.33607930952380954        0        
C1        C        0.5        0.12963        0.33607930952380954        0        
C2        C        0.53125        0.185185        0.33607930952380954        0        
C3        C        0.5        0.203703        0.33607930952380954        0        
C4        C        0.53125        0.148148        0.33607930952380954        0        
C1        C        0.5        0.24074099999999998        0.33607930952380954        0        
C2        C        0.53125        0.296297        0.33607930952380954        0        
C3        C        0.5        0.314815        0.33607930952380954        0        
C4        C        0.53125        0.259259        0.33607930952380954        0        
C1        C        0.5        0.351852        0.33607930952380954        0        
C2        C        0.53125        0.407408        0.33607930952380954        0        
C3        C        0.5        0.42592500000000005        0.33607930952380954        0        
C4        C        0.53125        0.37037        0.33607930952380954        0        
C1        C        0.5        0.46296300000000007        0.33607930952380954        0        
C2        C        0.53125        0.518519        0.33607930952380954        0        
C3        C        0.5        0.537037        0.33607930952380954        0        
C4        C        0.53125        0.481481        0.33607930952380954        0        
C1        C        0.5        0.574075        0.33607930952380954        0        
C2        C        0.53125        0.62963        0.33607930952380954        0        
C3        C        0.5        0.648148        0.33607930952380954        0        
C4        C        0.53125        0.592592        0.33607930952380954        0        
C_FG        C        0.5625        0.018519        0.33607930952380954        0.2        
C2        C        0.59375        0.074075        0.33607930952380954        0        
C3        C        0.5625        0.092592        0.33607930952380954        0        
C4        C        0.59375        0.037037        0.33607930952380954        0        
C1        C        0.5625        0.12963        0.33607930952380954        0        
C2        C        0.59375        0.185185        0.33607930952380954        0        
C3        C        0.5625        0.203703        0.33607930952380954        0        
C4        C        0.59375        0.148148        0.33607930952380954        0        
C_FG        C        0.5625        0.24074099999999998        0.33607930952380954        0.2        
C2        C        0.59375        0.296297        0.33607930952380954        0        
C3        C        0.5625        0.314815        0.33607930952380954        0        
C4        C        0.59375        0.259259        0.33607930952380954        0        
C1        C        0.5625        0.351852        0.33607930952380954        0        
C2        C        0.59375        0.407408        0.33607930952380954        0        
C3        C        0.5625        0.42592500000000005        0.33607930952380954        0        
C4        C        0.59375        0.37037        0.33607930952380954        0        
C_FG        C        0.5625        0.46296300000000007        0.33607930952380954        0.2        
C2        C        0.59375        0.518519        0.33607930952380954        0        
C3        C        0.5625        0.537037        0.33607930952380954        0        
C4        C        0.59375        0.481481        0.33607930952380954        0        
C1        C        0.5625        0.574075        0.33607930952380954        0        
C2        C        0.59375        0.62963        0.33607930952380954        0        
C3        C        0.5625        0.648148        0.33607930952380954        0        
C4        C        0.59375        0.592592        0.33607930952380954        0        
C1        C        0.625        0.018519        0.33607930952380954        0        
C2        C        0.65625        0.074075        0.33607930952380954        0        
C3        C        0.625        0.092592        0.33607930952380954        0        
C4        C        0.65625        0.037037        0.33607930952380954        0        
C1        C        0.625        0.12963        0.33607930952380954        0        
C2        C        0.65625        0.185185        0.33607930952380954        0        
C3        C        0.625        0.203703        0.33607930952380954        0        
C4        C        0.65625        0.148148        0.33607930952380954        0        
C1        C        0.625        0.24074099999999998        0.33607930952380954        0        
C2        C        0.65625        0.296297        0.33607930952380954        0        
C3        C        0.625        0.314815        0.33607930952380954        0        
C4        C        0.65625        0.259259        0.33607930952380954        0        
C1        C        0.625        0.351852        0.33607930952380954        0        
C2        C        0.65625        0.407408        0.33607930952380954        0        
C3        C        0.625        0.42592500000000005        0.33607930952380954        0        
C4        C        0.65625        0.37037        0.33607930952380954        0        
C1        C        0.625        0.46296300000000007        0.33607930952380954        0        
C2        C        0.65625        0.518519        0.33607930952380954        0        
C3        C        0.625        0.537037        0.33607930952380954        0        
C4        C        0.65625        0.481481        0.33607930952380954        0        
C1        C        0.625        0.574075        0.33607930952380954        0        
C2        C        0.65625        0.62963        0.33607930952380954        0        
C3        C        0.625        0.648148        0.33607930952380954        0        
C4        C        0.65625        0.592592        0.33607930952380954        0        
C1        C        0.6875        0.018519        0.33607930952380954        0        
C2        C        0.71875        0.074075        0.33607930952380954        0        
C3        C        0.6875        0.092592        0.33607930952380954        0        
C4        C        0.71875        0.037037        0.33607930952380954        0        
C1        C        0.6875        0.12963        0.33607930952380954        0        
C2        C        0.71875        0.185185        0.33607930952380954        0        
C3        C        0.6875        0.203703        0.33607930952380954        0        
C4        C        0.71875        0.148148        0.33607930952380954        0        
C1        C        0.6875        0.24074099999999998        0.33607930952380954        0        
C2        C        0.71875        0.296297        0.33607930952380954        0        
C3        C        0.6875        0.314815        0.33607930952380954        0        
C4        C        0.71875        0.259259        0.33607930952380954        0        
C1        C        0.6875        0.351852        0.33607930952380954        0        
C2        C        0.71875        0.407408        0.33607930952380954        0        
C3        C        0.6875        0.42592500000000005        0.33607930952380954        0        
C4        C        0.71875        0.37037        0.33607930952380954        0        
C1        C        0.6875        0.46296300000000007        0.33607930952380954        0        
C2        C        0.71875        0.518519        0.33607930952380954        0        
C3        C        0.6875        0.537037        0.33607930952380954        0        
C4        C        0.71875        0.481481        0.33607930952380954        0        
C1        C        0.6875        0.574075        0.33607930952380954        0        
C2        C        0.71875        0.62963        0.33607930952380954        0        
C3        C        0.6875        0.648148        0.33607930952380954        0        
C4        C        0.71875        0.592592        0.33607930952380954        0        
C_FG        C        0.75        0.018519        0.33607930952380954        0.2        
C2        C        0.78125        0.074075        0.33607930952380954        0        
C3        C        0.75        0.092592        0.33607930952380954        0        
C4        C        0.78125        0.037037        0.33607930952380954        0        
C1        C        0.75        0.12963        0.33607930952380954        0        
C2        C        0.78125        0.185185        0.33607930952380954        0        
C3        C        0.75        0.203703        0.33607930952380954        0        
C4        C        0.78125        0.148148        0.33607930952380954        0        
C_FG        C        0.75        0.24074099999999998        0.33607930952380954        0.2        
C2        C        0.78125        0.296297        0.33607930952380954        0        
C3        C        0.75        0.314815        0.33607930952380954        0        
C4        C        0.78125        0.259259        0.33607930952380954        0        
C1        C        0.75        0.351852        0.33607930952380954        0        
C2        C        0.78125        0.407408        0.33607930952380954        0        
C3        C        0.75        0.42592500000000005        0.33607930952380954        0        
C4        C        0.78125        0.37037        0.33607930952380954        0        
C_FG        C        0.75        0.46296300000000007        0.33607930952380954        0.2        
C2        C        0.78125        0.518519        0.33607930952380954        0        
C3        C        0.75        0.537037        0.33607930952380954        0        
C4        C        0.78125        0.481481        0.33607930952380954        0        
C1        C        0.75        0.574075        0.33607930952380954        0        
C2        C        0.78125        0.62963        0.33607930952380954        0        
C3        C        0.75        0.648148        0.33607930952380954        0        
C4        C        0.78125        0.592592        0.33607930952380954        0        
C1        C        0.8125        0.018519        0.33607930952380954        0        
C2        C        0.84375        0.074075        0.33607930952380954        0        
C3        C        0.8125        0.092592        0.33607930952380954        0        
C4        C        0.84375        0.037037        0.33607930952380954        0        
C1        C        0.8125        0.12963        0.33607930952380954        0        
C2        C        0.84375        0.185185        0.33607930952380954        0        
C3        C        0.8125        0.203703        0.33607930952380954        0        
C4        C        0.84375        0.148148        0.33607930952380954        0        
C1        C        0.8125        0.24074099999999998        0.33607930952380954        0        
C2        C        0.84375        0.296297        0.33607930952380954        0        
C3        C        0.8125        0.314815        0.33607930952380954        0        
C4        C        0.84375        0.259259        0.33607930952380954        0        
C1        C        0.8125        0.351852        0.33607930952380954        0        
C2        C        0.84375        0.407408        0.33607930952380954        0        
C3        C        0.8125        0.42592500000000005        0.33607930952380954        0        
C4        C        0.84375        0.37037        0.33607930952380954        0        
C1        C        0.8125        0.46296300000000007        0.33607930952380954        0        
C2        C        0.84375        0.518519        0.33607930952380954        0        
C3        C        0.8125        0.537037        0.33607930952380954        0        
C4        C        0.84375        0.481481        0.33607930952380954        0        
C1        C        0.8125        0.574075        0.33607930952380954        0        
C2        C        0.84375        0.62963        0.33607930952380954        0        
C3        C        0.8125        0.648148        0.33607930952380954        0        
C4        C        0.84375        0.592592        0.33607930952380954        0        
C1        C        0.875        0.018519        0.33607930952380954        0        
C2        C        0.9062500000000001        0.074075        0.33607930952380954        0        
C3        C        0.875        0.092592        0.33607930952380954        0        
C4        C        0.9062500000000001        0.037037        0.33607930952380954        0        
C1        C        0.875        0.12963        0.33607930952380954        0        
C2        C        0.9062500000000001        0.185185        0.33607930952380954        0        
C3        C        0.875        0.203703        0.33607930952380954        0        
C4        C        0.9062500000000001        0.148148        0.33607930952380954        0        
C1        C        0.875        0.24074099999999998        0.33607930952380954        0        
C2        C        0.9062500000000001        0.296297        0.33607930952380954        0        
C3        C        0.875        0.314815        0.33607930952380954        0        
C4        C        0.9062500000000001        0.259259        0.33607930952380954        0        
C1        C        0.875        0.351852        0.33607930952380954        0        
C2        C        0.9062500000000001        0.407408        0.33607930952380954        0        
C3        C        0.875        0.42592500000000005        0.33607930952380954        0        
C4        C        0.9062500000000001        0.37037        0.33607930952380954        0        
C1        C        0.875        0.46296300000000007        0.33607930952380954        0        
C2        C        0.9062500000000001        0.518519        0.33607930952380954        0        
C3        C        0.875        0.537037        0.33607930952380954        0        
C4        C        0.9062500000000001        0.481481        0.33607930952380954        0        
C1        C        0.875        0.574075        0.33607930952380954        0        
C2        C        0.9062500000000001        0.62963        0.33607930952380954        0        
C3        C        0.875        0.648148        0.33607930952380954        0        
C4        C        0.9062500000000001        0.592592        0.33607930952380954        0        
C_FG        C        0.9375        0.018519        0.33607930952380954        0.2        
C2        C        0.9687500000000001        0.074075        0.33607930952380954        0        
C3        C        0.9375        0.092592        0.33607930952380954        0        
C4        C        0.9687500000000001        0.037037        0.33607930952380954        0        
C1        C        0.9375        0.12963        0.33607930952380954        0        
C2        C        0.9687500000000001        0.185185        0.33607930952380954        0        
C3        C        0.9375        0.203703        0.33607930952380954        0        
C4        C        0.9687500000000001        0.148148        0.33607930952380954        0        
C_FG        C        0.9375        0.24074099999999998        0.33607930952380954        0.2        
C2        C        0.9687500000000001        0.296297        0.33607930952380954        0        
C3        C        0.9375        0.314815        0.33607930952380954        0        
C4        C        0.9687500000000001        0.259259        0.33607930952380954        0        
C1        C        0.9375        0.351852        0.33607930952380954        0        
C2        C        0.9687500000000001        0.407408        0.33607930952380954        0        
C3        C        0.9375        0.42592500000000005        0.33607930952380954        0        
C4        C        0.9687500000000001        0.37037        0.33607930952380954        0        
C_FG        C        0.9375        0.46296300000000007        0.33607930952380954        0.2        
C2        C        0.9687500000000001        0.518519        0.33607930952380954        0        
C3        C        0.9375        0.537037        0.33607930952380954        0        
C4        C        0.9687500000000001        0.481481        0.33607930952380954        0        
C1        C        0.9375        0.574075        0.33607930952380954        0        
C2        C        0.9687500000000001        0.62963        0.33607930952380954        0        
C3        C        0.9375        0.648148        0.33607930952380954        0        
C4        C        0.9687500000000001        0.592592        0.33607930952380954        0        
C_FG        C        0.0        0.685186        0.33607930952380954        0.2        
C1        C        0.0625        0.685186        0.33607930952380954        0        
C1        C        0.125        0.685186        0.33607930952380954        0        
C_FG        C        0.1875        0.685186        0.33607930952380954        0.2        
C1        C        0.25        0.685186        0.33607930952380954        0        
C1        C        0.3125        0.685186        0.33607930952380954        0        
C_FG        C        0.375        0.685186        0.33607930952380954        0.2        
C1        C        0.4375        0.685186        0.33607930952380954        0        
C1        C        0.5        0.685186        0.33607930952380954        0        
C_FG        C        0.5625        0.685186        0.33607930952380954        0.2        
C1        C        0.625        0.685186        0.33607930952380954        0        
C1        C        0.6875        0.685186        0.33607930952380954        0        
C_FG        C        0.75        0.685186        0.33607930952380954        0.2        
C1        C        0.8125        0.685186        0.33607930952380954        0        
C1        C        0.875        0.685186        0.33607930952380954        0        
C_FG        C        0.9375        0.685186        0.33607930952380954        0.2        
C2        C        0.03125        0.740741        0.33607930952380954        0        
C2        C        0.09375        0.740741        0.33607930952380954        0        
C2        C        0.15625        0.740741        0.33607930952380954        0        
C2        C        0.21875        0.740741        0.33607930952380954        0        
C2        C        0.28125        0.740741        0.33607930952380954        0        
C2        C        0.34375        0.740741        0.33607930952380954        0        
C2        C        0.40625        0.740741        0.33607930952380954        0        
C2        C        0.46875        0.740741        0.33607930952380954        0        
C2        C        0.53125        0.740741        0.33607930952380954        0        
C2        C        0.59375        0.740741        0.33607930952380954        0        
C2        C        0.65625        0.740741        0.33607930952380954        0        
C2        C        0.71875        0.740741        0.33607930952380954        0        
C2        C        0.78125        0.740741        0.33607930952380954        0        
C2        C        0.84375        0.740741        0.33607930952380954        0        
C2        C        0.9062500000000001        0.740741        0.33607930952380954        0        
C2        C        0.9687500000000001        0.740741        0.33607930952380954        0        
C3        C        0.0        0.759259        0.33607930952380954        0        
C3        C        0.0625        0.759259        0.33607930952380954        0        
C3        C        0.125        0.759259        0.33607930952380954        0        
C3        C        0.1875        0.759259        0.33607930952380954        0        
C3        C        0.25        0.759259        0.33607930952380954        0        
C3        C        0.3125        0.759259        0.33607930952380954        0        
C3        C        0.375        0.759259        0.33607930952380954        0        
C3        C        0.4375        0.759259        0.33607930952380954        0        
C3        C        0.5        0.759259        0.33607930952380954        0        
C3        C        0.5625        0.759259        0.33607930952380954        0        
C3        C        0.625        0.759259        0.33607930952380954        0        
C3        C        0.6875        0.759259        0.33607930952380954        0        
C3        C        0.75        0.759259        0.33607930952380954        0        
C3        C        0.8125        0.759259        0.33607930952380954        0        
C3        C        0.875        0.759259        0.33607930952380954        0        
C3        C        0.9375        0.759259        0.33607930952380954        0        
C4        C        0.03125        0.703703        0.33607930952380954        0        
C4        C        0.09375        0.703703        0.33607930952380954        0        
C4        C        0.15625        0.703703        0.33607930952380954        0        
C4        C        0.21875        0.703703        0.33607930952380954        0        
C4        C        0.28125        0.703703        0.33607930952380954        0        
C4        C        0.34375        0.703703        0.33607930952380954        0        
C4        C        0.40625        0.703703        0.33607930952380954        0        
C4        C        0.46875        0.703703        0.33607930952380954        0        
C4        C        0.53125        0.703703        0.33607930952380954        0        
C4        C        0.59375        0.703703        0.33607930952380954        0        
C4        C        0.65625        0.703703        0.33607930952380954        0        
C4        C        0.71875        0.703703        0.33607930952380954        0        
C4        C        0.78125        0.703703        0.33607930952380954        0        
C4        C        0.84375        0.703703        0.33607930952380954        0        
C4        C        0.9062500000000001        0.703703        0.33607930952380954        0        
C4        C        0.9687500000000001        0.703703        0.33607930952380954        0        
C1        C        0.0        0.796297        0.33607930952380954        0        
C1        C        0.0625        0.796297        0.33607930952380954        0        
C1        C        0.125        0.796297        0.33607930952380954        0        
C1        C        0.1875        0.796297        0.33607930952380954        0        
C1        C        0.25        0.796297        0.33607930952380954        0        
C1        C        0.3125        0.796297        0.33607930952380954        0        
C1        C        0.375        0.796297        0.33607930952380954        0        
C1        C        0.4375        0.796297        0.33607930952380954        0        
C1        C        0.5        0.796297        0.33607930952380954        0        
C1        C        0.5625        0.796297        0.33607930952380954        0        
C1        C        0.625        0.796297        0.33607930952380954        0        
C1        C        0.6875        0.796297        0.33607930952380954        0        
C1        C        0.75        0.796297        0.33607930952380954        0        
C1        C        0.8125        0.796297        0.33607930952380954        0        
C1        C        0.875        0.796297        0.33607930952380954        0        
C1        C        0.9375        0.796297        0.33607930952380954        0        
C2        C        0.03125        0.851852        0.33607930952380954        0        
C2        C        0.09375        0.851852        0.33607930952380954        0        
C2        C        0.15625        0.851852        0.33607930952380954        0        
C2        C        0.21875        0.851852        0.33607930952380954        0        
C2        C        0.28125        0.851852        0.33607930952380954        0        
C2        C        0.34375        0.851852        0.33607930952380954        0        
C2        C        0.40625        0.851852        0.33607930952380954        0        
C2        C        0.46875        0.851852        0.33607930952380954        0        
C2        C        0.53125        0.851852        0.33607930952380954        0        
C2        C        0.59375        0.851852        0.33607930952380954        0        
C2        C        0.65625        0.851852        0.33607930952380954        0        
C2        C        0.71875        0.851852        0.33607930952380954        0        
C2        C        0.78125        0.851852        0.33607930952380954        0        
C2        C        0.84375        0.851852        0.33607930952380954        0        
C2        C        0.9062500000000001        0.851852        0.33607930952380954        0        
C2        C        0.9687500000000001        0.851852        0.33607930952380954        0        
C3        C        0.0        0.87037        0.33607930952380954        0        
C3        C        0.0625        0.87037        0.33607930952380954        0        
C3        C        0.125        0.87037        0.33607930952380954        0        
C3        C        0.1875        0.87037        0.33607930952380954        0        
C3        C        0.25        0.87037        0.33607930952380954        0        
C3        C        0.3125        0.87037        0.33607930952380954        0        
C3        C        0.375        0.87037        0.33607930952380954        0        
C3        C        0.4375        0.87037        0.33607930952380954        0        
C3        C        0.5        0.87037        0.33607930952380954        0        
C3        C        0.5625        0.87037        0.33607930952380954        0        
C3        C        0.625        0.87037        0.33607930952380954        0        
C3        C        0.6875        0.87037        0.33607930952380954        0        
C3        C        0.75        0.87037        0.33607930952380954        0        
C3        C        0.8125        0.87037        0.33607930952380954        0        
C3        C        0.875        0.87037        0.33607930952380954        0        
C3        C        0.9375        0.87037        0.33607930952380954        0        
C4        C        0.03125        0.814814        0.33607930952380954        0        
C4        C        0.09375        0.814814        0.33607930952380954        0        
C4        C        0.15625        0.814814        0.33607930952380954        0        
C4        C        0.21875        0.814814        0.33607930952380954        0        
C4        C        0.28125        0.814814        0.33607930952380954        0        
C4        C        0.34375        0.814814        0.33607930952380954        0        
C4        C        0.40625        0.814814        0.33607930952380954        0        
C4        C        0.46875        0.814814        0.33607930952380954        0        
C4        C        0.53125        0.814814        0.33607930952380954        0        
C4        C        0.59375        0.814814        0.33607930952380954        0        
C4        C        0.65625        0.814814        0.33607930952380954        0        
C4        C        0.71875        0.814814        0.33607930952380954        0        
C4        C        0.78125        0.814814        0.33607930952380954        0        
C4        C        0.84375        0.814814        0.33607930952380954        0        
C4        C        0.9062500000000001        0.814814        0.33607930952380954        0        
C4        C        0.9687500000000001        0.814814        0.33607930952380954        0        
C_FG        C        0.0        0.907408        0.33607930952380954        0.2        
C1        C        0.0625        0.907408        0.33607930952380954        0        
C1        C        0.125        0.907408        0.33607930952380954        0        
C_FG        C        0.1875        0.907408        0.33607930952380954        0.2        
C1        C        0.25        0.907408        0.33607930952380954        0        
C1        C        0.3125        0.907408        0.33607930952380954        0        
C_FG        C        0.375        0.907408        0.33607930952380954        0.2        
C1        C        0.4375        0.907408        0.33607930952380954        0        
C1        C        0.5        0.907408        0.33607930952380954        0        
C_FG        C        0.5625        0.907408        0.33607930952380954        0.2        
C1        C        0.625        0.907408        0.33607930952380954        0        
C1        C        0.6875        0.907408        0.33607930952380954        0        
C_FG        C        0.75        0.907408        0.33607930952380954        0.2        
C1        C        0.8125        0.907408        0.33607930952380954        0        
C1        C        0.875        0.907408        0.33607930952380954        0        
C_FG        C        0.9375        0.907408        0.33607930952380954        0.2        
C2        C        0.03125        0.962963        0.33607930952380954        0        
C2        C        0.09375        0.962963        0.33607930952380954        0        
C2        C        0.15625        0.962963        0.33607930952380954        0        
C2        C        0.21875        0.962963        0.33607930952380954        0        
C2        C        0.28125        0.962963        0.33607930952380954        0        
C2        C        0.34375        0.962963        0.33607930952380954        0        
C2        C        0.40625        0.962963        0.33607930952380954        0        
C2        C        0.46875        0.962963        0.33607930952380954        0        
C2        C        0.53125        0.962963        0.33607930952380954        0        
C2        C        0.59375        0.962963        0.33607930952380954        0        
C2        C        0.65625        0.962963        0.33607930952380954        0        
C2        C        0.71875        0.962963        0.33607930952380954        0        
C2        C        0.78125        0.962963        0.33607930952380954        0        
C2        C        0.84375        0.962963        0.33607930952380954        0        
C2        C        0.9062500000000001        0.962963        0.33607930952380954        0        
C2        C        0.9687500000000001        0.962963        0.33607930952380954        0        
C3        C        0.0        0.9814809999999999        0.33607930952380954        0        
C3        C        0.0625        0.9814809999999999        0.33607930952380954        0        
C3        C        0.125        0.9814809999999999        0.33607930952380954        0        
C3        C        0.1875        0.9814809999999999        0.33607930952380954        0        
C3        C        0.25        0.9814809999999999        0.33607930952380954        0        
C3        C        0.3125        0.9814809999999999        0.33607930952380954        0        
C3        C        0.375        0.9814809999999999        0.33607930952380954        0        
C3        C        0.4375        0.9814809999999999        0.33607930952380954        0        
C3        C        0.5        0.9814809999999999        0.33607930952380954        0        
C3        C        0.5625        0.9814809999999999        0.33607930952380954        0        
C3        C        0.625        0.9814809999999999        0.33607930952380954        0        
C3        C        0.6875        0.9814809999999999        0.33607930952380954        0        
C3        C        0.75        0.9814809999999999        0.33607930952380954        0        
C3        C        0.8125        0.9814809999999999        0.33607930952380954        0        
C3        C        0.875        0.9814809999999999        0.33607930952380954        0        
C3        C        0.9375        0.9814809999999999        0.33607930952380954        0        
C4        C        0.03125        0.925925        0.33607930952380954        0        
C4        C        0.09375        0.925925        0.33607930952380954        0        
C4        C        0.15625        0.925925        0.33607930952380954        0        
C4        C        0.21875        0.925925        0.33607930952380954        0        
C4        C        0.28125        0.925925        0.33607930952380954        0        
C4        C        0.34375        0.925925        0.33607930952380954        0        
C4        C        0.40625        0.925925        0.33607930952380954        0        
C4        C        0.46875        0.925925        0.33607930952380954        0        
C4        C        0.53125        0.925925        0.33607930952380954        0        
C4        C        0.59375        0.925925        0.33607930952380954        0        
C4        C        0.65625        0.925925        0.33607930952380954        0        
C4        C        0.71875        0.925925        0.33607930952380954        0        
C4        C        0.78125        0.925925        0.33607930952380954        0        
C4        C        0.84375        0.925925        0.33607930952380954        0        
C4        C        0.9062500000000001        0.925925        0.33607930952380954        0        
C4        C        0.9687500000000001        0.925925        0.33607930952380954        0        
O_OH        O        0.0        0.018519        0.013341230158730157        -0.64        
O_OH        O        0.0        0.24074099999999998        0.013341230158730157        -0.64        
O_OH        O        0.0        0.46296300000000007        0.013341230158730157        -0.64        
O_OH        O        0.1875        0.018519        0.013341230158730157        -0.64        
O_OH        O        0.1875        0.24074099999999998        0.013341230158730157        -0.64        
O_OH        O        0.1875        0.46296300000000007        0.013341230158730157        -0.64        
O_OH        O        0.375        0.018519        0.013341230158730157        -0.64        
O_OH        O        0.375        0.24074099999999998        0.013341230158730157        -0.64        
O_OH        O        0.375        0.46296300000000007        0.013341230158730157        -0.64        
O_OH        O        0.5625        0.018519        0.013341230158730157        -0.64        
O_OH        O        0.5625        0.24074099999999998        0.013341230158730157        -0.64        
O_OH        O        0.5625        0.46296300000000007        0.013341230158730157        -0.64        
O_OH        O        0.75        0.018519        0.013341230158730157        -0.64        
O_OH        O        0.75        0.24074099999999998        0.013341230158730157        -0.64        
O_OH        O        0.75        0.46296300000000007        0.013341230158730157        -0.64        
O_OH        O        0.9375        0.018519        0.013341230158730157        -0.64        
O_OH        O        0.9375        0.24074099999999998        0.013341230158730157        -0.64        
O_OH        O        0.9375        0.46296300000000007        0.013341230158730157        -0.64        
O_OH        O        0.0        0.685186        0.013341230158730157        -0.64        
O_OH        O        0.1875        0.685186        0.013341230158730157        -0.64        
O_OH        O        0.375        0.685186        0.013341230158730157        -0.64        
O_OH        O        0.5625        0.685186        0.013341230158730157        -0.64        
O_OH        O        0.75        0.685186        0.013341230158730157        -0.64        
O_OH        O        0.9375        0.685186        0.013341230158730157        -0.64        
O_OH        O        0.0        0.907408        0.013341230158730157        -0.64        
O_OH        O        0.1875        0.907408        0.013341230158730157        -0.64        
O_OH        O        0.375        0.907408        0.013341230158730157        -0.64        
O_OH        O        0.5625        0.907408        0.013341230158730157        -0.64        
O_OH        O        0.75        0.907408        0.013341230158730157        -0.64        
O_OH        O        0.9375        0.907408        0.013341230158730157        -0.64        
O_OH        O        0.0        0.018519        0.39294440476190473        -0.64        
O_OH        O        0.0        0.24074099999999998        0.39294440476190473        -0.64        
O_OH        O        0.0        0.46296300000000007        0.39294440476190473        -0.64        
O_OH        O        0.1875        0.018519        0.39294440476190473        -0.64        
O_OH        O        0.1875        0.24074099999999998        0.39294440476190473        -0.64        
O_OH        O        0.1875        0.46296300000000007        0.39294440476190473        -0.64        
O_OH        O        0.375        0.018519        0.39294440476190473        -0.64        
O_OH        O        0.375        0.24074099999999998        0.39294440476190473        -0.64        
O_OH        O        0.375        0.46296300000000007        0.39294440476190473        -0.64        
O_OH        O        0.5625        0.018519        0.39294440476190473        -0.64        
O_OH        O        0.5625        0.24074099999999998        0.39294440476190473        -0.64        
O_OH        O        0.5625        0.46296300000000007        0.39294440476190473        -0.64        
O_OH        O        0.75        0.018519        0.39294440476190473        -0.64        
O_OH        O        0.75        0.24074099999999998        0.39294440476190473        -0.64        
O_OH        O        0.75        0.46296300000000007        0.39294440476190473        -0.64        
O_OH        O        0.9375        0.018519        0.39294440476190473        -0.64        
O_OH        O        0.9375        0.24074099999999998        0.39294440476190473        -0.64        
O_OH        O        0.9375        0.46296300000000007        0.39294440476190473        -0.64        
O_OH        O        0.0        0.685186        0.39294440476190473        -0.64        
O_OH        O        0.1875        0.685186        0.39294440476190473        -0.64        
O_OH        O        0.375        0.685186        0.39294440476190473        -0.64        
O_OH        O        0.5625        0.685186        0.39294440476190473        -0.64        
O_OH        O        0.75        0.685186        0.39294440476190473        -0.64        
O_OH        O        0.9375        0.685186        0.39294440476190473        -0.64        
O_OH        O        0.0        0.907408        0.39294440476190473        -0.64        
O_OH        O        0.1875        0.907408        0.39294440476190473        -0.64        
O_OH        O        0.375        0.907408        0.39294440476190473        -0.64        
O_OH        O        0.5625        0.907408        0.39294440476190473        -0.64        
O_OH        O        0.75        0.907408        0.39294440476190473        -0.64        
O_OH        O        0.9375        0.907408        0.39294440476190473        -0.64        
H_OH        H        -0.010262448699033123        0.03947295405041762        0.0        0.44        
H_OH        H        0.011377234412215198        0.2610792382303174        0.0        0.44        
H_OH        H        0.001796986374656006        0.48634378460709143        0.0        0.44        
H_OH        H        0.2028433198394444        0.035895827688647484        0.0        0.44        
H_OH        H        0.1666397436929798        0.25030408176921376        0.0        0.44        
H_OH        H        0.1913984749319757        0.48607245316038217        0.0        0.44        
H_OH        H        0.38725577728709926        0.03831197564681955        0.0        0.44        
H_OH        H        0.3966848689673753        0.24812190364031414        0.0        0.44        
H_OH        H        0.3968746825091769        0.46972789162011935        0.0        0.44        
H_OH        H        0.5766513943431067        0.03693109068473972        0.0        0.44        
H_OH        H        0.5396544531912261        0.240815849793789        0.0        0.44        
H_OH        H        0.5399944863217391        0.46699510807037553        0.0        0.44        
H_OH        H        0.7656703675427841        0.03558546766576508        0.0        0.44        
H_OH        H        0.7319866957716995        0.2551663469240284        0.0        0.44        
H_OH        H        0.7317105937800222        0.47701742885705756        0.0        0.44        
H_OH        H        0.9586460191790815        0.027396020970861443        0.0        0.44        
H_OH        H        0.9537481521250903        0.25722820628861537        0.0        0.44        
H_OH        H        0.9593691987112107        0.4697465517783003        0.0        0.44        
H_OH        H        -0.014407928075963826        0.7033871989343017        0.0        0.44        
H_OH        H        0.16638854099556416        0.6941492955622779        0.0        0.44        
H_OH        H        0.3847851085883638        0.7063792451992472        0.0        0.44        
H_OH        H        0.5496134623557386        0.7045521578282329        0.0        0.44        
H_OH        H        0.76786741006517        0.6998013227462837        0.0        0.44        
H_OH        H        0.9396218438642854        0.7085380746235271        0.0        0.44        
H_OH        H        0.016771507207228295        0.923333301988235        0.0        0.44        
H_OH        H        0.19733057682184146        0.9285790572342582        0.0        0.44        
H_OH        H        0.3804504497846586        0.9301841991418819        0.0        0.44        
H_OH        H        0.5852000837935404        0.9100514846738764        0.0        0.44        
H_OH        H        0.7722134625522492        0.9128872587957886        0.0        0.44        
H_OH        H        0.9427385172711032        0.9302365506518611        0.0        0.44        
H_OH        H        0.0014610291272759354        0.04192444074864601        0.40628563492063496        0.44        
H_OH        H        0.022615118979087988        0.24406452161877137        0.40628563492063496        0.44        
H_OH        H        0.022821032781337923        0.46405177528503977        0.40628563492063496        0.44        
H_OH        H        0.2058607257457236        0.03247508008272749        0.40628563492063496        0.44        
H_OH        H        0.20796578898564363        0.25116372672497805        0.40628563492063496        0.44        
H_OH        H        0.17804710994934164        0.4843145678653515        0.40628563492063496        0.44        
H_OH        H        0.38708913302792647        0.038419692402628096        0.40628563492063496        0.44        
H_OH        H        0.3900680879180825        0.25836982914902074        0.40628563492063496        0.44        
H_OH        H        0.3831121725571413        0.4848880757194003        0.40628563492063496        0.44        
H_OH        H        0.5643515032144932        0.04189530126052907        0.40628563492063496        0.44        
H_OH        H        0.5826440556619681        0.25180459856580645        0.40628563492063496        0.44        
H_OH        H        0.5656874517997118        0.4861870548885839        0.40628563492063496        0.44        
H_OH        H        0.7282755223869917        0.02577611036740204        0.40628563492063496        0.44        
H_OH        H        0.7607733900309285        0.26142289107308514        0.40628563492063496        0.44        
H_OH        H        0.7590834822640967        0.4844829005279985        0.40628563492063496        0.44        
H_OH        H        0.9597430465146475        0.023870277143342472        0.40628563492063496        0.44        
H_OH        H        0.9149733719635763        0.2446468681666865        0.40628563492063496        0.44        
H_OH        H        0.919414140977797        0.4772923493127494        0.40628563492063496        0.44        
H_OH        H        0.009861820503800557        0.7063417374948291        0.40628563492063496        0.44        
H_OH        H        0.17117616386593099        0.7015942259915822        0.40628563492063496        0.44        
H_OH        H        0.3816759462368564        0.707615738193947        0.40628563492063496        0.44        
H_OH        H        0.5799462200120952        0.7003281048906207        0.40628563492063496        0.44        
H_OH        H        0.7453036160424488        0.7081385414520426        0.40628563492063496        0.44        
H_OH        H        0.9578595604710602        0.6958257308248588        0.40628563492063496        0.44        
H_OH        H        0.014071865489112743        0.9258842188931378        0.40628563492063496        0.44        
H_OH        H        0.20974240964345311        0.9127620663135115        0.40628563492063496        0.44        
H_OH        H        0.36375368516363377        0.927822835083086        0.40628563492063496        0.44        
H_OH        H        0.5721133843049784        0.9286839121694935        0.40628563492063496        0.44        
H_OH        H        0.7278394457452301        0.9131085799633766        0.40628563492063496        0.44        
H_OH        H        0.9589210458827157        0.9155604980117316        0.40628563492063496        0.44        
