data_graphite_ortho

_audit_creation_method RASPA-1.0
_audit_creation_date 2012-2-3
_audit_author_name 'David Dubbeldam'

_cell_length_a    39.36    
_cell_length_b    38.339999999999996    
_cell_length_c    13.7    
_cell_angle_alpha 90
_cell_angle_beta  90
_cell_angle_gamma 90
_cell_volume      20674.15      

_symmetry_cell_setting          triclinic
_symmetry_space_group_name_Hall 'P 1'
_symmetry_space_group_name_H-M  'P 1'
_symmetry_Int_Tables_number     1

_symmetry_equiv_pos_as_xyz 'x,y,z'

loop_
_atom_site_label
_atom_site_type_symbol
_atom_site_fract_x
_atom_site_fract_y
_atom_site_fract_z
_atom_site_charge
C_FG        C        0.0        0.018519        0.16947        0.08        
C2        C        0.03125        0.074075        0.16947        0        
C3        C        0.0        0.092592        0.16947        0        
C4        C        0.03125        0.037037        0.16947        0        
C1        C        0.0        0.12963        0.16947        0        
C2        C        0.03125        0.185185        0.16947        0        
C_FG        C        0.0        0.203703        0.16947        0.08        
C4        C        0.03125        0.148148        0.16947        0        
C1        C        0.0        0.24074099999999998        0.16947        0        
C2        C        0.03125        0.296297        0.16947        0        
C3        C        0.0        0.314815        0.16947        0        
C4        C        0.03125        0.259259        0.16947        0        
C_FG        C        0.0        0.351852        0.16947        0.08        
C2        C        0.03125        0.407408        0.16947        0        
C3        C        0.0        0.425925        0.16947        0        
C4        C        0.03125        0.37037        0.16947        0        
C1        C        0.0        0.46296300000000007        0.16947        0        
C2        C        0.03125        0.518519        0.16947        0        
C_FG        C        0.0        0.537037        0.16947        0.08        
C4        C        0.03125        0.481481        0.16947        0        
C1        C        0.0        0.574075        0.16947        0        
C2        C        0.03125        0.62963        0.16947        0        
C3        C        0.0        0.648148        0.16947        0        
C4        C        0.03125        0.592592        0.16947        0        
C1        C        0.0625        0.018519        0.16947        0        
C2        C        0.09375        0.074075        0.16947        0        
C3        C        0.0625        0.092592        0.16947        0        
C4        C        0.09375        0.037037        0.16947        0        
C1        C        0.0625        0.12963        0.16947        0        
C2        C        0.09375        0.185185        0.16947        0        
C3        C        0.0625        0.203703        0.16947        0        
C4        C        0.09375        0.148148        0.16947        0        
C1        C        0.0625        0.24074099999999998        0.16947        0        
C2        C        0.09375        0.296297        0.16947        0        
C3        C        0.0625        0.314815        0.16947        0        
C4        C        0.09375        0.259259        0.16947        0        
C1        C        0.0625        0.351852        0.16947        0        
C2        C        0.09375        0.407408        0.16947        0        
C3        C        0.0625        0.425925        0.16947        0        
C4        C        0.09375        0.37037        0.16947        0        
C1        C        0.0625        0.46296300000000007        0.16947        0        
C2        C        0.09375        0.518519        0.16947        0        
C3        C        0.0625        0.537037        0.16947        0        
C4        C        0.09375        0.481481        0.16947        0        
C1        C        0.0625        0.574075        0.16947        0        
C2        C        0.09375        0.62963        0.16947        0        
C3        C        0.0625        0.648148        0.16947        0        
C4        C        0.09375        0.592592        0.16947        0        
C1        C        0.125        0.018519        0.16947        0        
C2        C        0.15625        0.074075        0.16947        0        
C3        C        0.125        0.092592        0.16947        0        
C4        C        0.15625        0.037037        0.16947        0        
C1        C        0.125        0.12963        0.16947        0        
C2        C        0.15625        0.185185        0.16947        0        
C3        C        0.125        0.203703        0.16947        0        
C4        C        0.15625        0.148148        0.16947        0        
C1        C        0.125        0.24074099999999998        0.16947        0        
C2        C        0.15625        0.296297        0.16947        0        
C3        C        0.125        0.314815        0.16947        0        
C4        C        0.15625        0.259259        0.16947        0        
C1        C        0.125        0.351852        0.16947        0        
C2        C        0.15625        0.407408        0.16947        0        
C3        C        0.125        0.425925        0.16947        0        
C4        C        0.15625        0.37037        0.16947        0        
C1        C        0.125        0.46296300000000007        0.16947        0        
C2        C        0.15625        0.518519        0.16947        0        
C3        C        0.125        0.537037        0.16947        0        
C4        C        0.15625        0.481481        0.16947        0        
C1        C        0.125        0.574075        0.16947        0        
C2        C        0.15625        0.62963        0.16947        0        
C3        C        0.125        0.648148        0.16947        0        
C4        C        0.15625        0.592592        0.16947        0        
C1        C        0.1875        0.018519        0.16947        0        
C2        C        0.21875        0.074075        0.16947        0        
C3        C        0.1875        0.092592        0.16947        0        
C4        C        0.21875        0.037037        0.16947        0        
C1        C        0.1875        0.12963        0.16947        0        
C2        C        0.21875        0.185185        0.16947        0        
C3        C        0.1875        0.203703        0.16947        0        
C4        C        0.21875        0.148148        0.16947        0        
C1        C        0.1875        0.24074099999999998        0.16947        0        
C2        C        0.21875        0.296297        0.16947        0        
C3        C        0.1875        0.314815        0.16947        0        
C4        C        0.21875        0.259259        0.16947        0        
C1        C        0.1875        0.351852        0.16947        0        
C2        C        0.21875        0.407408        0.16947        0        
C3        C        0.1875        0.425925        0.16947        0        
C4        C        0.21875        0.37037        0.16947        0        
C1        C        0.1875        0.46296300000000007        0.16947        0        
C2        C        0.21875        0.518519        0.16947        0        
C3        C        0.1875        0.537037        0.16947        0        
C4        C        0.21875        0.481481        0.16947        0        
C1        C        0.1875        0.574075        0.16947        0        
C2        C        0.21875        0.62963        0.16947        0        
C3        C        0.1875        0.648148        0.16947        0        
C4        C        0.21875        0.592592        0.16947        0        
C_FG        C        0.25        0.018519        0.16947        0.08        
C2        C        0.28125        0.074075        0.16947        0        
C3        C        0.25        0.092592        0.16947        0        
C4        C        0.28125        0.037037        0.16947        0        
C1        C        0.25        0.12963        0.16947        0        
C2        C        0.28125        0.185185        0.16947        0        
C_FG        C        0.25        0.203703        0.16947        0.08        
C4        C        0.28125        0.148148        0.16947        0        
C1        C        0.25        0.24074099999999998        0.16947        0        
C2        C        0.28125        0.296297        0.16947        0        
C3        C        0.25        0.314815        0.16947        0        
C4        C        0.28125        0.259259        0.16947        0        
C_FG        C        0.25        0.351852        0.16947        0.08        
C2        C        0.28125        0.407408        0.16947        0        
C3        C        0.25        0.425925        0.16947        0        
C4        C        0.28125        0.37037        0.16947        0        
C1        C        0.25        0.46296300000000007        0.16947        0        
C2        C        0.28125        0.518519        0.16947        0        
C_FG        C        0.25        0.537037        0.16947        0.08        
C4        C        0.28125        0.481481        0.16947        0        
C1        C        0.25        0.574075        0.16947        0        
C2        C        0.28125        0.62963        0.16947        0        
C3        C        0.25        0.648148        0.16947        0        
C4        C        0.28125        0.592592        0.16947        0        
C1        C        0.3125        0.018519        0.16947        0        
C2        C        0.34375        0.074075        0.16947        0        
C3        C        0.3125        0.092592        0.16947        0        
C4        C        0.34375        0.037037        0.16947        0        
C1        C        0.3125        0.12963        0.16947        0        
C2        C        0.34375        0.185185        0.16947        0        
C3        C        0.3125        0.203703        0.16947        0        
C4        C        0.34375        0.148148        0.16947        0        
C1        C        0.3125        0.24074099999999998        0.16947        0        
C2        C        0.34375        0.296297        0.16947        0        
C3        C        0.3125        0.314815        0.16947        0        
C4        C        0.34375        0.259259        0.16947        0        
C1        C        0.3125        0.351852        0.16947        0        
C2        C        0.34375        0.407408        0.16947        0        
C3        C        0.3125        0.425925        0.16947        0        
C4        C        0.34375        0.37037        0.16947        0        
C1        C        0.3125        0.46296300000000007        0.16947        0        
C2        C        0.34375        0.518519        0.16947        0        
C3        C        0.3125        0.537037        0.16947        0        
C4        C        0.34375        0.481481        0.16947        0        
C1        C        0.3125        0.574075        0.16947        0        
C2        C        0.34375        0.62963        0.16947        0        
C3        C        0.3125        0.648148        0.16947        0        
C4        C        0.34375        0.592592        0.16947        0        
C1        C        0.375        0.018519        0.16947        0        
C2        C        0.40625        0.074075        0.16947        0        
C3        C        0.375        0.092592        0.16947        0        
C4        C        0.40625        0.037037        0.16947        0        
C1        C        0.375        0.12963        0.16947        0        
C2        C        0.40625        0.185185        0.16947        0        
C3        C        0.375        0.203703        0.16947        0        
C4        C        0.40625        0.148148        0.16947        0        
C1        C        0.375        0.24074099999999998        0.16947        0        
C2        C        0.40625        0.296297        0.16947        0        
C3        C        0.375        0.314815        0.16947        0        
C4        C        0.40625        0.259259        0.16947        0        
C1        C        0.375        0.351852        0.16947        0        
C2        C        0.40625        0.407408        0.16947        0        
C3        C        0.375        0.425925        0.16947        0        
C4        C        0.40625        0.37037        0.16947        0        
C1        C        0.375        0.46296300000000007        0.16947        0        
C2        C        0.40625        0.518519        0.16947        0        
C3        C        0.375        0.537037        0.16947        0        
C4        C        0.40625        0.481481        0.16947        0        
C1        C        0.375        0.574075        0.16947        0        
C2        C        0.40625        0.62963        0.16947        0        
C3        C        0.375        0.648148        0.16947        0        
C4        C        0.40625        0.592592        0.16947        0        
C1        C        0.4375        0.018519        0.16947        0        
C2        C        0.46875        0.074075        0.16947        0        
C3        C        0.4375        0.092592        0.16947        0        
C4        C        0.46875        0.037037        0.16947        0        
C1        C        0.4375        0.12963        0.16947        0        
C2        C        0.46875        0.185185        0.16947        0        
C3        C        0.4375        0.203703        0.16947        0        
C4        C        0.46875        0.148148        0.16947        0        
C1        C        0.4375        0.24074099999999998        0.16947        0        
C2        C        0.46875        0.296297        0.16947        0        
C3        C        0.4375        0.314815        0.16947        0        
C4        C        0.46875        0.259259        0.16947        0        
C1        C        0.4375        0.351852        0.16947        0        
C2        C        0.46875        0.407408        0.16947        0        
C3        C        0.4375        0.425925        0.16947        0        
C4        C        0.46875        0.37037        0.16947        0        
C1        C        0.4375        0.46296300000000007        0.16947        0        
C2        C        0.46875        0.518519        0.16947        0        
C3        C        0.4375        0.537037        0.16947        0        
C4        C        0.46875        0.481481        0.16947        0        
C1        C        0.4375        0.574075        0.16947        0        
C2        C        0.46875        0.62963        0.16947        0        
C3        C        0.4375        0.648148        0.16947        0        
C4        C        0.46875        0.592592        0.16947        0        
C1        C        0.5        0.018519        0.16947        0        
C2        C        0.53125        0.074075        0.16947        0        
C3        C        0.5        0.092592        0.16947        0        
C4        C        0.53125        0.037037        0.16947        0        
C1        C        0.5        0.12963        0.16947        0        
C2        C        0.53125        0.185185        0.16947        0        
C3        C        0.5        0.203703        0.16947        0        
C4        C        0.53125        0.148148        0.16947        0        
C1        C        0.5        0.24074099999999998        0.16947        0        
C2        C        0.53125        0.296297        0.16947        0        
C3        C        0.5        0.314815        0.16947        0        
C4        C        0.53125        0.259259        0.16947        0        
C1        C        0.5        0.351852        0.16947        0        
C2        C        0.53125        0.407408        0.16947        0        
C3        C        0.5        0.425925        0.16947        0        
C4        C        0.53125        0.37037        0.16947        0        
C1        C        0.5        0.46296300000000007        0.16947        0        
C2        C        0.53125        0.518519        0.16947        0        
C3        C        0.5        0.537037        0.16947        0        
C4        C        0.53125        0.481481        0.16947        0        
C1        C        0.5        0.574075        0.16947        0        
C2        C        0.53125        0.62963        0.16947        0        
C3        C        0.5        0.648148        0.16947        0        
C4        C        0.53125        0.592592        0.16947        0        
C1        C        0.5625        0.018519        0.16947        0        
C2        C        0.59375        0.074075        0.16947        0        
C3        C        0.5625        0.092592        0.16947        0        
C4        C        0.59375        0.037037        0.16947        0        
C1        C        0.5625        0.12963        0.16947        0        
C2        C        0.59375        0.185185        0.16947        0        
C3        C        0.5625        0.203703        0.16947        0        
C4        C        0.59375        0.148148        0.16947        0        
C1        C        0.5625        0.24074099999999998        0.16947        0        
C2        C        0.59375        0.296297        0.16947        0        
C3        C        0.5625        0.314815        0.16947        0        
C4        C        0.59375        0.259259        0.16947        0        
C1        C        0.5625        0.351852        0.16947        0        
C2        C        0.59375        0.407408        0.16947        0        
C3        C        0.5625        0.425925        0.16947        0        
C4        C        0.59375        0.37037        0.16947        0        
C1        C        0.5625        0.46296300000000007        0.16947        0        
C2        C        0.59375        0.518519        0.16947        0        
C3        C        0.5625        0.537037        0.16947        0        
C4        C        0.59375        0.481481        0.16947        0        
C1        C        0.5625        0.574075        0.16947        0        
C2        C        0.59375        0.62963        0.16947        0        
C3        C        0.5625        0.648148        0.16947        0        
C4        C        0.59375        0.592592        0.16947        0        
C1        C        0.625        0.018519        0.16947        0        
C2        C        0.65625        0.074075        0.16947        0        
C3        C        0.625        0.092592        0.16947        0        
C4        C        0.65625        0.037037        0.16947        0        
C1        C        0.625        0.12963        0.16947        0        
C2        C        0.65625        0.185185        0.16947        0        
C3        C        0.625        0.203703        0.16947        0        
C4        C        0.65625        0.148148        0.16947        0        
C1        C        0.625        0.24074099999999998        0.16947        0        
C2        C        0.65625        0.296297        0.16947        0        
C3        C        0.625        0.314815        0.16947        0        
C4        C        0.65625        0.259259        0.16947        0        
C1        C        0.625        0.351852        0.16947        0        
C2        C        0.65625        0.407408        0.16947        0        
C3        C        0.625        0.425925        0.16947        0        
C4        C        0.65625        0.37037        0.16947        0        
C1        C        0.625        0.46296300000000007        0.16947        0        
C2        C        0.65625        0.518519        0.16947        0        
C3        C        0.625        0.537037        0.16947        0        
C4        C        0.65625        0.481481        0.16947        0        
C1        C        0.625        0.574075        0.16947        0        
C2        C        0.65625        0.62963        0.16947        0        
C3        C        0.625        0.648148        0.16947        0        
C4        C        0.65625        0.592592        0.16947        0        
C1        C        0.6875        0.018519        0.16947        0        
C2        C        0.71875        0.074075        0.16947        0        
C3        C        0.6875        0.092592        0.16947        0        
C4        C        0.71875        0.037037        0.16947        0        
C1        C        0.6875        0.12963        0.16947        0        
C2        C        0.71875        0.185185        0.16947        0        
C3        C        0.6875        0.203703        0.16947        0        
C4        C        0.71875        0.148148        0.16947        0        
C1        C        0.6875        0.24074099999999998        0.16947        0        
C2        C        0.71875        0.296297        0.16947        0        
C3        C        0.6875        0.314815        0.16947        0        
C4        C        0.71875        0.259259        0.16947        0        
C1        C        0.6875        0.351852        0.16947        0        
C2        C        0.71875        0.407408        0.16947        0        
C3        C        0.6875        0.425925        0.16947        0        
C4        C        0.71875        0.37037        0.16947        0        
C1        C        0.6875        0.46296300000000007        0.16947        0        
C2        C        0.71875        0.518519        0.16947        0        
C3        C        0.6875        0.537037        0.16947        0        
C4        C        0.71875        0.481481        0.16947        0        
C1        C        0.6875        0.574075        0.16947        0        
C2        C        0.71875        0.62963        0.16947        0        
C3        C        0.6875        0.648148        0.16947        0        
C4        C        0.71875        0.592592        0.16947        0        
C_FG        C        0.75        0.018519        0.16947        0.08        
C2        C        0.78125        0.074075        0.16947        0        
C3        C        0.75        0.092592        0.16947        0        
C4        C        0.78125        0.037037        0.16947        0        
C1        C        0.75        0.12963        0.16947        0        
C2        C        0.78125        0.185185        0.16947        0        
C_FG        C        0.75        0.203703        0.16947        0.08        
C4        C        0.78125        0.148148        0.16947        0        
C1        C        0.75        0.24074099999999998        0.16947        0        
C2        C        0.78125        0.296297        0.16947        0        
C3        C        0.75        0.314815        0.16947        0        
C4        C        0.78125        0.259259        0.16947        0        
C_FG        C        0.75        0.351852        0.16947        0.08        
C2        C        0.78125        0.407408        0.16947        0        
C3        C        0.75        0.425925        0.16947        0        
C4        C        0.78125        0.37037        0.16947        0        
C1        C        0.75        0.46296300000000007        0.16947        0        
C2        C        0.78125        0.518519        0.16947        0        
C_FG        C        0.75        0.537037        0.16947        0.08        
C4        C        0.78125        0.481481        0.16947        0        
C1        C        0.75        0.574075        0.16947        0        
C2        C        0.78125        0.62963        0.16947        0        
C3        C        0.75        0.648148        0.16947        0        
C4        C        0.78125        0.592592        0.16947        0        
C1        C        0.8125        0.018519        0.16947        0        
C2        C        0.84375        0.074075        0.16947        0        
C3        C        0.8125        0.092592        0.16947        0        
C4        C        0.84375        0.037037        0.16947        0        
C1        C        0.8125        0.12963        0.16947        0        
C2        C        0.84375        0.185185        0.16947        0        
C3        C        0.8125        0.203703        0.16947        0        
C4        C        0.84375        0.148148        0.16947        0        
C1        C        0.8125        0.24074099999999998        0.16947        0        
C2        C        0.84375        0.296297        0.16947        0        
C3        C        0.8125        0.314815        0.16947        0        
C4        C        0.84375        0.259259        0.16947        0        
C1        C        0.8125        0.351852        0.16947        0        
C2        C        0.84375        0.407408        0.16947        0        
C3        C        0.8125        0.425925        0.16947        0        
C4        C        0.84375        0.37037        0.16947        0        
C1        C        0.8125        0.46296300000000007        0.16947        0        
C2        C        0.84375        0.518519        0.16947        0        
C3        C        0.8125        0.537037        0.16947        0        
C4        C        0.84375        0.481481        0.16947        0        
C1        C        0.8125        0.574075        0.16947        0        
C2        C        0.84375        0.62963        0.16947        0        
C3        C        0.8125        0.648148        0.16947        0        
C4        C        0.84375        0.592592        0.16947        0        
C1        C        0.875        0.018519        0.16947        0        
C2        C        0.9062500000000001        0.074075        0.16947        0        
C3        C        0.875        0.092592        0.16947        0        
C4        C        0.9062500000000001        0.037037        0.16947        0        
C1        C        0.875        0.12963        0.16947        0        
C2        C        0.9062500000000001        0.185185        0.16947        0        
C3        C        0.875        0.203703        0.16947        0        
C4        C        0.9062500000000001        0.148148        0.16947        0        
C1        C        0.875        0.24074099999999998        0.16947        0        
C2        C        0.9062500000000001        0.296297        0.16947        0        
C3        C        0.875        0.314815        0.16947        0        
C4        C        0.9062500000000001        0.259259        0.16947        0        
C1        C        0.875        0.351852        0.16947        0        
C2        C        0.9062500000000001        0.407408        0.16947        0        
C3        C        0.875        0.425925        0.16947        0        
C4        C        0.9062500000000001        0.37037        0.16947        0        
C1        C        0.875        0.46296300000000007        0.16947        0        
C2        C        0.9062500000000001        0.518519        0.16947        0        
C3        C        0.875        0.537037        0.16947        0        
C4        C        0.9062500000000001        0.481481        0.16947        0        
C1        C        0.875        0.574075        0.16947        0        
C2        C        0.9062500000000001        0.62963        0.16947        0        
C3        C        0.875        0.648148        0.16947        0        
C4        C        0.9062500000000001        0.592592        0.16947        0        
C1        C        0.9375        0.018519        0.16947        0        
C2        C        0.9687500000000001        0.074075        0.16947        0        
C3        C        0.9375        0.092592        0.16947        0        
C4        C        0.9687500000000001        0.037037        0.16947        0        
C1        C        0.9375        0.12963        0.16947        0        
C2        C        0.9687500000000001        0.185185        0.16947        0        
C3        C        0.9375        0.203703        0.16947        0        
C4        C        0.9687500000000001        0.148148        0.16947        0        
C1        C        0.9375        0.24074099999999998        0.16947        0        
C2        C        0.9687500000000001        0.296297        0.16947        0        
C3        C        0.9375        0.314815        0.16947        0        
C4        C        0.9687500000000001        0.259259        0.16947        0        
C1        C        0.9375        0.351852        0.16947        0        
C2        C        0.9687500000000001        0.407408        0.16947        0        
C3        C        0.9375        0.425925        0.16947        0        
C4        C        0.9687500000000001        0.37037        0.16947        0        
C1        C        0.9375        0.46296300000000007        0.16947        0        
C2        C        0.9687500000000001        0.518519        0.16947        0        
C3        C        0.9375        0.537037        0.16947        0        
C4        C        0.9687500000000001        0.481481        0.16947        0        
C1        C        0.9375        0.574075        0.16947        0        
C2        C        0.9687500000000001        0.62963        0.16947        0        
C3        C        0.9375        0.648148        0.16947        0        
C4        C        0.9687500000000001        0.592592        0.16947        0        
C_FG        C        0.0        0.685186        0.16947        0.08        
C1        C        0.0625        0.685186        0.16947        0        
C1        C        0.125        0.685186        0.16947        0        
C1        C        0.1875        0.685186        0.16947        0        
C_FG        C        0.25        0.685186        0.16947        0.08        
C1        C        0.3125        0.685186        0.16947        0        
C1        C        0.375        0.685186        0.16947        0        
C1        C        0.4375        0.685186        0.16947        0        
C1        C        0.5        0.685186        0.16947        0        
C1        C        0.5625        0.685186        0.16947        0        
C1        C        0.625        0.685186        0.16947        0        
C1        C        0.6875        0.685186        0.16947        0        
C_FG        C        0.75        0.685186        0.16947        0.08        
C1        C        0.8125        0.685186        0.16947        0        
C1        C        0.875        0.685186        0.16947        0        
C1        C        0.9375        0.685186        0.16947        0        
C2        C        0.03125        0.740741        0.16947        0        
C2        C        0.09375        0.740741        0.16947        0        
C2        C        0.15625        0.740741        0.16947        0        
C2        C        0.21875        0.740741        0.16947        0        
C2        C        0.28125        0.740741        0.16947        0        
C2        C        0.34375        0.740741        0.16947        0        
C2        C        0.40625        0.740741        0.16947        0        
C2        C        0.46875        0.740741        0.16947        0        
C2        C        0.53125        0.740741        0.16947        0        
C2        C        0.59375        0.740741        0.16947        0        
C2        C        0.65625        0.740741        0.16947        0        
C2        C        0.71875        0.740741        0.16947        0        
C2        C        0.78125        0.740741        0.16947        0        
C2        C        0.84375        0.740741        0.16947        0        
C2        C        0.9062500000000001        0.740741        0.16947        0        
C2        C        0.9687500000000001        0.740741        0.16947        0        
C3        C        0.0        0.759259        0.16947        0        
C3        C        0.0625        0.759259        0.16947        0        
C3        C        0.125        0.759259        0.16947        0        
C3        C        0.1875        0.759259        0.16947        0        
C3        C        0.25        0.759259        0.16947        0        
C3        C        0.3125        0.759259        0.16947        0        
C3        C        0.375        0.759259        0.16947        0        
C3        C        0.4375        0.759259        0.16947        0        
C3        C        0.5        0.759259        0.16947        0        
C3        C        0.5625        0.759259        0.16947        0        
C3        C        0.625        0.759259        0.16947        0        
C3        C        0.6875        0.759259        0.16947        0        
C3        C        0.75        0.759259        0.16947        0        
C3        C        0.8125        0.759259        0.16947        0        
C3        C        0.875        0.759259        0.16947        0        
C3        C        0.9375        0.759259        0.16947        0        
C4        C        0.03125        0.703703        0.16947        0        
C4        C        0.09375        0.703703        0.16947        0        
C4        C        0.15625        0.703703        0.16947        0        
C4        C        0.21875        0.703703        0.16947        0        
C4        C        0.28125        0.703703        0.16947        0        
C4        C        0.34375        0.703703        0.16947        0        
C4        C        0.40625        0.703703        0.16947        0        
C4        C        0.46875        0.703703        0.16947        0        
C4        C        0.53125        0.703703        0.16947        0        
C4        C        0.59375        0.703703        0.16947        0        
C4        C        0.65625        0.703703        0.16947        0        
C4        C        0.71875        0.703703        0.16947        0        
C4        C        0.78125        0.703703        0.16947        0        
C4        C        0.84375        0.703703        0.16947        0        
C4        C        0.9062500000000001        0.703703        0.16947        0        
C4        C        0.9687500000000001        0.703703        0.16947        0        
C1        C        0.0        0.796297        0.16947        0        
C1        C        0.0625        0.796297        0.16947        0        
C1        C        0.125        0.796297        0.16947        0        
C1        C        0.1875        0.796297        0.16947        0        
C1        C        0.25        0.796297        0.16947        0        
C1        C        0.3125        0.796297        0.16947        0        
C1        C        0.375        0.796297        0.16947        0        
C1        C        0.4375        0.796297        0.16947        0        
C1        C        0.5        0.796297        0.16947        0        
C1        C        0.5625        0.796297        0.16947        0        
C1        C        0.625        0.796297        0.16947        0        
C1        C        0.6875        0.796297        0.16947        0        
C1        C        0.75        0.796297        0.16947        0        
C1        C        0.8125        0.796297        0.16947        0        
C1        C        0.875        0.796297        0.16947        0        
C1        C        0.9375        0.796297        0.16947        0        
C2        C        0.03125        0.851852        0.16947        0        
C2        C        0.09375        0.851852        0.16947        0        
C2        C        0.15625        0.851852        0.16947        0        
C2        C        0.21875        0.851852        0.16947        0        
C2        C        0.28125        0.851852        0.16947        0        
C2        C        0.34375        0.851852        0.16947        0        
C2        C        0.40625        0.851852        0.16947        0        
C2        C        0.46875        0.851852        0.16947        0        
C2        C        0.53125        0.851852        0.16947        0        
C2        C        0.59375        0.851852        0.16947        0        
C2        C        0.65625        0.851852        0.16947        0        
C2        C        0.71875        0.851852        0.16947        0        
C2        C        0.78125        0.851852        0.16947        0        
C2        C        0.84375        0.851852        0.16947        0        
C2        C        0.9062500000000001        0.851852        0.16947        0        
C2        C        0.9687500000000001        0.851852        0.16947        0        
C_FG        C        0.0        0.87037        0.16947        0.08        
C3        C        0.0625        0.87037        0.16947        0        
C3        C        0.125        0.87037        0.16947        0        
C3        C        0.1875        0.87037        0.16947        0        
C_FG        C        0.25        0.87037        0.16947        0.08        
C3        C        0.3125        0.87037        0.16947        0        
C3        C        0.375        0.87037        0.16947        0        
C3        C        0.4375        0.87037        0.16947        0        
C3        C        0.5        0.87037        0.16947        0        
C3        C        0.5625        0.87037        0.16947        0        
C3        C        0.625        0.87037        0.16947        0        
C3        C        0.6875        0.87037        0.16947        0        
C_FG        C        0.75        0.87037        0.16947        0.08        
C3        C        0.8125        0.87037        0.16947        0        
C3        C        0.875        0.87037        0.16947        0        
C3        C        0.9375        0.87037        0.16947        0        
C4        C        0.03125        0.814814        0.16947        0        
C4        C        0.09375        0.814814        0.16947        0        
C4        C        0.15625        0.814814        0.16947        0        
C4        C        0.21875        0.814814        0.16947        0        
C4        C        0.28125        0.814814        0.16947        0        
C4        C        0.34375        0.814814        0.16947        0        
C4        C        0.40625        0.814814        0.16947        0        
C4        C        0.46875        0.814814        0.16947        0        
C4        C        0.53125        0.814814        0.16947        0        
C4        C        0.59375        0.814814        0.16947        0        
C4        C        0.65625        0.814814        0.16947        0        
C4        C        0.71875        0.814814        0.16947        0        
C4        C        0.78125        0.814814        0.16947        0        
C4        C        0.84375        0.814814        0.16947        0        
C4        C        0.9062500000000001        0.814814        0.16947        0        
C4        C        0.9687500000000001        0.814814        0.16947        0        
C1        C        0.0        0.907408        0.16947        0        
C1        C        0.0625        0.907408        0.16947        0        
C1        C        0.125        0.907408        0.16947        0        
C1        C        0.1875        0.907408        0.16947        0        
C1        C        0.25        0.907408        0.16947        0        
C1        C        0.3125        0.907408        0.16947        0        
C1        C        0.375        0.907408        0.16947        0        
C1        C        0.4375        0.907408        0.16947        0        
C1        C        0.5        0.907408        0.16947        0        
C1        C        0.5625        0.907408        0.16947        0        
C1        C        0.625        0.907408        0.16947        0        
C1        C        0.6875        0.907408        0.16947        0        
C1        C        0.75        0.907408        0.16947        0        
C1        C        0.8125        0.907408        0.16947        0        
C1        C        0.875        0.907408        0.16947        0        
C1        C        0.9375        0.907408        0.16947        0        
C2        C        0.03125        0.962963        0.16947        0        
C2        C        0.09375        0.962963        0.16947        0        
C2        C        0.15625        0.962963        0.16947        0        
C2        C        0.21875        0.962963        0.16947        0        
C2        C        0.28125        0.962963        0.16947        0        
C2        C        0.34375        0.962963        0.16947        0        
C2        C        0.40625        0.962963        0.16947        0        
C2        C        0.46875        0.962963        0.16947        0        
C2        C        0.53125        0.962963        0.16947        0        
C2        C        0.59375        0.962963        0.16947        0        
C2        C        0.65625        0.962963        0.16947        0        
C2        C        0.71875        0.962963        0.16947        0        
C2        C        0.78125        0.962963        0.16947        0        
C2        C        0.84375        0.962963        0.16947        0        
C2        C        0.9062500000000001        0.962963        0.16947        0        
C2        C        0.9687500000000001        0.962963        0.16947        0        
C3        C        0.0        0.9814809999999999        0.16947        0        
C3        C        0.0625        0.9814809999999999        0.16947        0        
C3        C        0.125        0.9814809999999999        0.16947        0        
C3        C        0.1875        0.9814809999999999        0.16947        0        
C3        C        0.25        0.9814809999999999        0.16947        0        
C3        C        0.3125        0.9814809999999999        0.16947        0        
C3        C        0.375        0.9814809999999999        0.16947        0        
C3        C        0.4375        0.9814809999999999        0.16947        0        
C3        C        0.5        0.9814809999999999        0.16947        0        
C3        C        0.5625        0.9814809999999999        0.16947        0        
C3        C        0.625        0.9814809999999999        0.16947        0        
C3        C        0.6875        0.9814809999999999        0.16947        0        
C3        C        0.75        0.9814809999999999        0.16947        0        
C3        C        0.8125        0.9814809999999999        0.16947        0        
C3        C        0.875        0.9814809999999999        0.16947        0        
C3        C        0.9375        0.9814809999999999        0.16947        0        
C4        C        0.03125        0.925925        0.16947        0        
C4        C        0.09375        0.925925        0.16947        0        
C4        C        0.15625        0.925925        0.16947        0        
C4        C        0.21875        0.925925        0.16947        0        
C4        C        0.28125        0.925925        0.16947        0        
C4        C        0.34375        0.925925        0.16947        0        
C4        C        0.40625        0.925925        0.16947        0        
C4        C        0.46875        0.925925        0.16947        0        
C4        C        0.53125        0.925925        0.16947        0        
C4        C        0.59375        0.925925        0.16947        0        
C4        C        0.65625        0.925925        0.16947        0        
C4        C        0.71875        0.925925        0.16947        0        
C4        C        0.78125        0.925925        0.16947        0        
C4        C        0.84375        0.925925        0.16947        0        
C4        C        0.9062500000000001        0.925925        0.16947        0        
C4        C        0.9687500000000001        0.925925        0.16947        0        
C1        C        0.0        0.018519        0.4139955474452554        0        
C2        C        0.03125        0.074075        0.4139955474452554        0        
C3        C        0.0        0.092592        0.4139955474452554        0        
C4        C        0.03125        0.037037        0.4139955474452554        0        
C1        C        0.0        0.12963        0.4139955474452554        0        
C2        C        0.03125        0.185185        0.4139955474452554        0        
C3        C        0.0        0.203703        0.4139955474452554        0        
C4        C        0.03125        0.148148        0.4139955474452554        0        
C1        C        0.0        0.24074099999999998        0.4139955474452554        0        
C2        C        0.03125        0.296297        0.4139955474452554        0        
C3        C        0.0        0.314815        0.4139955474452554        0        
C4        C        0.03125        0.259259        0.4139955474452554        0        
C1        C        0.0        0.351852        0.4139955474452554        0        
C2        C        0.03125        0.407408        0.4139955474452554        0        
C3        C        0.0        0.425925        0.4139955474452554        0        
C4        C        0.03125        0.37037        0.4139955474452554        0        
C1        C        0.0        0.46296300000000007        0.4139955474452554        0        
C2        C        0.03125        0.518519        0.4139955474452554        0        
C3        C        0.0        0.537037        0.4139955474452554        0        
C4        C        0.03125        0.481481        0.4139955474452554        0        
C1        C        0.0        0.574075        0.4139955474452554        0        
C2        C        0.03125        0.62963        0.4139955474452554        0        
C3        C        0.0        0.648148        0.4139955474452554        0        
C4        C        0.03125        0.592592        0.4139955474452554        0        
C1        C        0.0625        0.018519        0.4139955474452554        0        
C2        C        0.09375        0.074075        0.4139955474452554        0        
C3        C        0.0625        0.092592        0.4139955474452554        0        
C4        C        0.09375        0.037037        0.4139955474452554        0        
C1        C        0.0625        0.12963        0.4139955474452554        0        
C2        C        0.09375        0.185185        0.4139955474452554        0        
C3        C        0.0625        0.203703        0.4139955474452554        0        
C4        C        0.09375        0.148148        0.4139955474452554        0        
C1        C        0.0625        0.24074099999999998        0.4139955474452554        0        
C2        C        0.09375        0.296297        0.4139955474452554        0        
C3        C        0.0625        0.314815        0.4139955474452554        0        
C4        C        0.09375        0.259259        0.4139955474452554        0        
C1        C        0.0625        0.351852        0.4139955474452554        0        
C2        C        0.09375        0.407408        0.4139955474452554        0        
C3        C        0.0625        0.425925        0.4139955474452554        0        
C4        C        0.09375        0.37037        0.4139955474452554        0        
C1        C        0.0625        0.46296300000000007        0.4139955474452554        0        
C2        C        0.09375        0.518519        0.4139955474452554        0        
C3        C        0.0625        0.537037        0.4139955474452554        0        
C4        C        0.09375        0.481481        0.4139955474452554        0        
C1        C        0.0625        0.574075        0.4139955474452554        0        
C2        C        0.09375        0.62963        0.4139955474452554        0        
C3        C        0.0625        0.648148        0.4139955474452554        0        
C4        C        0.09375        0.592592        0.4139955474452554        0        
C1        C        0.125        0.018519        0.4139955474452554        0        
C2        C        0.15625        0.074075        0.4139955474452554        0        
C3        C        0.125        0.092592        0.4139955474452554        0        
C4        C        0.15625        0.037037        0.4139955474452554        0        
C1        C        0.125        0.12963        0.4139955474452554        0        
C2        C        0.15625        0.185185        0.4139955474452554        0        
C3        C        0.125        0.203703        0.4139955474452554        0        
C4        C        0.15625        0.148148        0.4139955474452554        0        
C1        C        0.125        0.24074099999999998        0.4139955474452554        0        
C2        C        0.15625        0.296297        0.4139955474452554        0        
C3        C        0.125        0.314815        0.4139955474452554        0        
C4        C        0.15625        0.259259        0.4139955474452554        0        
C1        C        0.125        0.351852        0.4139955474452554        0        
C2        C        0.15625        0.407408        0.4139955474452554        0        
C3        C        0.125        0.425925        0.4139955474452554        0        
C4        C        0.15625        0.37037        0.4139955474452554        0        
C1        C        0.125        0.46296300000000007        0.4139955474452554        0        
C2        C        0.15625        0.518519        0.4139955474452554        0        
C3        C        0.125        0.537037        0.4139955474452554        0        
C4        C        0.15625        0.481481        0.4139955474452554        0        
C1        C        0.125        0.574075        0.4139955474452554        0        
C2        C        0.15625        0.62963        0.4139955474452554        0        
C3        C        0.125        0.648148        0.4139955474452554        0        
C4        C        0.15625        0.592592        0.4139955474452554        0        
C1        C        0.1875        0.018519        0.4139955474452554        0        
C2        C        0.21875        0.074075        0.4139955474452554        0        
C3        C        0.1875        0.092592        0.4139955474452554        0        
C4        C        0.21875        0.037037        0.4139955474452554        0        
C1        C        0.1875        0.12963        0.4139955474452554        0        
C2        C        0.21875        0.185185        0.4139955474452554        0        
C3        C        0.1875        0.203703        0.4139955474452554        0        
C4        C        0.21875        0.148148        0.4139955474452554        0        
C1        C        0.1875        0.24074099999999998        0.4139955474452554        0        
C2        C        0.21875        0.296297        0.4139955474452554        0        
C3        C        0.1875        0.314815        0.4139955474452554        0        
C4        C        0.21875        0.259259        0.4139955474452554        0        
C1        C        0.1875        0.351852        0.4139955474452554        0        
C2        C        0.21875        0.407408        0.4139955474452554        0        
C3        C        0.1875        0.425925        0.4139955474452554        0        
C4        C        0.21875        0.37037        0.4139955474452554        0        
C1        C        0.1875        0.46296300000000007        0.4139955474452554        0        
C2        C        0.21875        0.518519        0.4139955474452554        0        
C3        C        0.1875        0.537037        0.4139955474452554        0        
C4        C        0.21875        0.481481        0.4139955474452554        0        
C1        C        0.1875        0.574075        0.4139955474452554        0        
C2        C        0.21875        0.62963        0.4139955474452554        0        
C3        C        0.1875        0.648148        0.4139955474452554        0        
C4        C        0.21875        0.592592        0.4139955474452554        0        
C1        C        0.25        0.018519        0.4139955474452554        0        
C2        C        0.28125        0.074075        0.4139955474452554        0        
C3        C        0.25        0.092592        0.4139955474452554        0        
C4        C        0.28125        0.037037        0.4139955474452554        0        
C1        C        0.25        0.12963        0.4139955474452554        0        
C2        C        0.28125        0.185185        0.4139955474452554        0        
C3        C        0.25        0.203703        0.4139955474452554        0        
C4        C        0.28125        0.148148        0.4139955474452554        0        
C1        C        0.25        0.24074099999999998        0.4139955474452554        0        
C2        C        0.28125        0.296297        0.4139955474452554        0        
C3        C        0.25        0.314815        0.4139955474452554        0        
C4        C        0.28125        0.259259        0.4139955474452554        0        
C1        C        0.25        0.351852        0.4139955474452554        0        
C2        C        0.28125        0.407408        0.4139955474452554        0        
C3        C        0.25        0.425925        0.4139955474452554        0        
C4        C        0.28125        0.37037        0.4139955474452554        0        
C1        C        0.25        0.46296300000000007        0.4139955474452554        0        
C2        C        0.28125        0.518519        0.4139955474452554        0        
C3        C        0.25        0.537037        0.4139955474452554        0        
C4        C        0.28125        0.481481        0.4139955474452554        0        
C1        C        0.25        0.574075        0.4139955474452554        0        
C2        C        0.28125        0.62963        0.4139955474452554        0        
C3        C        0.25        0.648148        0.4139955474452554        0        
C4        C        0.28125        0.592592        0.4139955474452554        0        
C1        C        0.3125        0.018519        0.4139955474452554        0        
C2        C        0.34375        0.074075        0.4139955474452554        0        
C3        C        0.3125        0.092592        0.4139955474452554        0        
C4        C        0.34375        0.037037        0.4139955474452554        0        
C1        C        0.3125        0.12963        0.4139955474452554        0        
C2        C        0.34375        0.185185        0.4139955474452554        0        
C3        C        0.3125        0.203703        0.4139955474452554        0        
C4        C        0.34375        0.148148        0.4139955474452554        0        
C1        C        0.3125        0.24074099999999998        0.4139955474452554        0        
C2        C        0.34375        0.296297        0.4139955474452554        0        
C3        C        0.3125        0.314815        0.4139955474452554        0        
C4        C        0.34375        0.259259        0.4139955474452554        0        
C1        C        0.3125        0.351852        0.4139955474452554        0        
C2        C        0.34375        0.407408        0.4139955474452554        0        
C3        C        0.3125        0.425925        0.4139955474452554        0        
C4        C        0.34375        0.37037        0.4139955474452554        0        
C1        C        0.3125        0.46296300000000007        0.4139955474452554        0        
C2        C        0.34375        0.518519        0.4139955474452554        0        
C3        C        0.3125        0.537037        0.4139955474452554        0        
C4        C        0.34375        0.481481        0.4139955474452554        0        
C1        C        0.3125        0.574075        0.4139955474452554        0        
C2        C        0.34375        0.62963        0.4139955474452554        0        
C3        C        0.3125        0.648148        0.4139955474452554        0        
C4        C        0.34375        0.592592        0.4139955474452554        0        
C1        C        0.375        0.018519        0.4139955474452554        0        
C2        C        0.40625        0.074075        0.4139955474452554        0        
C3        C        0.375        0.092592        0.4139955474452554        0        
C4        C        0.40625        0.037037        0.4139955474452554        0        
C1        C        0.375        0.12963        0.4139955474452554        0        
C2        C        0.40625        0.185185        0.4139955474452554        0        
C3        C        0.375        0.203703        0.4139955474452554        0        
C4        C        0.40625        0.148148        0.4139955474452554        0        
C1        C        0.375        0.24074099999999998        0.4139955474452554        0        
C2        C        0.40625        0.296297        0.4139955474452554        0        
C3        C        0.375        0.314815        0.4139955474452554        0        
C4        C        0.40625        0.259259        0.4139955474452554        0        
C1        C        0.375        0.351852        0.4139955474452554        0        
C2        C        0.40625        0.407408        0.4139955474452554        0        
C3        C        0.375        0.425925        0.4139955474452554        0        
C4        C        0.40625        0.37037        0.4139955474452554        0        
C1        C        0.375        0.46296300000000007        0.4139955474452554        0        
C2        C        0.40625        0.518519        0.4139955474452554        0        
C3        C        0.375        0.537037        0.4139955474452554        0        
C4        C        0.40625        0.481481        0.4139955474452554        0        
C1        C        0.375        0.574075        0.4139955474452554        0        
C2        C        0.40625        0.62963        0.4139955474452554        0        
C3        C        0.375        0.648148        0.4139955474452554        0        
C4        C        0.40625        0.592592        0.4139955474452554        0        
C1        C        0.4375        0.018519        0.4139955474452554        0        
C2        C        0.46875        0.074075        0.4139955474452554        0        
C3        C        0.4375        0.092592        0.4139955474452554        0        
C4        C        0.46875        0.037037        0.4139955474452554        0        
C1        C        0.4375        0.12963        0.4139955474452554        0        
C2        C        0.46875        0.185185        0.4139955474452554        0        
C3        C        0.4375        0.203703        0.4139955474452554        0        
C4        C        0.46875        0.148148        0.4139955474452554        0        
C1        C        0.4375        0.24074099999999998        0.4139955474452554        0        
C2        C        0.46875        0.296297        0.4139955474452554        0        
C3        C        0.4375        0.314815        0.4139955474452554        0        
C4        C        0.46875        0.259259        0.4139955474452554        0        
C1        C        0.4375        0.351852        0.4139955474452554        0        
C2        C        0.46875        0.407408        0.4139955474452554        0        
C3        C        0.4375        0.425925        0.4139955474452554        0        
C4        C        0.46875        0.37037        0.4139955474452554        0        
C1        C        0.4375        0.46296300000000007        0.4139955474452554        0        
C2        C        0.46875        0.518519        0.4139955474452554        0        
C3        C        0.4375        0.537037        0.4139955474452554        0        
C4        C        0.46875        0.481481        0.4139955474452554        0        
C1        C        0.4375        0.574075        0.4139955474452554        0        
C2        C        0.46875        0.62963        0.4139955474452554        0        
C3        C        0.4375        0.648148        0.4139955474452554        0        
C4        C        0.46875        0.592592        0.4139955474452554        0        
C1        C        0.5        0.018519        0.4139955474452554        0        
C2        C        0.53125        0.074075        0.4139955474452554        0        
C3        C        0.5        0.092592        0.4139955474452554        0        
C4        C        0.53125        0.037037        0.4139955474452554        0        
C1        C        0.5        0.12963        0.4139955474452554        0        
C2        C        0.53125        0.185185        0.4139955474452554        0        
C3        C        0.5        0.203703        0.4139955474452554        0        
C4        C        0.53125        0.148148        0.4139955474452554        0        
C1        C        0.5        0.24074099999999998        0.4139955474452554        0        
C2        C        0.53125        0.296297        0.4139955474452554        0        
C3        C        0.5        0.314815        0.4139955474452554        0        
C4        C        0.53125        0.259259        0.4139955474452554        0        
C1        C        0.5        0.351852        0.4139955474452554        0        
C2        C        0.53125        0.407408        0.4139955474452554        0        
C3        C        0.5        0.425925        0.4139955474452554        0        
C4        C        0.53125        0.37037        0.4139955474452554        0        
C1        C        0.5        0.46296300000000007        0.4139955474452554        0        
C2        C        0.53125        0.518519        0.4139955474452554        0        
C3        C        0.5        0.537037        0.4139955474452554        0        
C4        C        0.53125        0.481481        0.4139955474452554        0        
C1        C        0.5        0.574075        0.4139955474452554        0        
C2        C        0.53125        0.62963        0.4139955474452554        0        
C3        C        0.5        0.648148        0.4139955474452554        0        
C4        C        0.53125        0.592592        0.4139955474452554        0        
C1        C        0.5625        0.018519        0.4139955474452554        0        
C2        C        0.59375        0.074075        0.4139955474452554        0        
C3        C        0.5625        0.092592        0.4139955474452554        0        
C4        C        0.59375        0.037037        0.4139955474452554        0        
C1        C        0.5625        0.12963        0.4139955474452554        0        
C2        C        0.59375        0.185185        0.4139955474452554        0        
C3        C        0.5625        0.203703        0.4139955474452554        0        
C4        C        0.59375        0.148148        0.4139955474452554        0        
C1        C        0.5625        0.24074099999999998        0.4139955474452554        0        
C2        C        0.59375        0.296297        0.4139955474452554        0        
C3        C        0.5625        0.314815        0.4139955474452554        0        
C4        C        0.59375        0.259259        0.4139955474452554        0        
C1        C        0.5625        0.351852        0.4139955474452554        0        
C2        C        0.59375        0.407408        0.4139955474452554        0        
C3        C        0.5625        0.425925        0.4139955474452554        0        
C4        C        0.59375        0.37037        0.4139955474452554        0        
C1        C        0.5625        0.46296300000000007        0.4139955474452554        0        
C2        C        0.59375        0.518519        0.4139955474452554        0        
C3        C        0.5625        0.537037        0.4139955474452554        0        
C4        C        0.59375        0.481481        0.4139955474452554        0        
C1        C        0.5625        0.574075        0.4139955474452554        0        
C2        C        0.59375        0.62963        0.4139955474452554        0        
C3        C        0.5625        0.648148        0.4139955474452554        0        
C4        C        0.59375        0.592592        0.4139955474452554        0        
C1        C        0.625        0.018519        0.4139955474452554        0        
C2        C        0.65625        0.074075        0.4139955474452554        0        
C3        C        0.625        0.092592        0.4139955474452554        0        
C4        C        0.65625        0.037037        0.4139955474452554        0        
C1        C        0.625        0.12963        0.4139955474452554        0        
C2        C        0.65625        0.185185        0.4139955474452554        0        
C3        C        0.625        0.203703        0.4139955474452554        0        
C4        C        0.65625        0.148148        0.4139955474452554        0        
C1        C        0.625        0.24074099999999998        0.4139955474452554        0        
C2        C        0.65625        0.296297        0.4139955474452554        0        
C3        C        0.625        0.314815        0.4139955474452554        0        
C4        C        0.65625        0.259259        0.4139955474452554        0        
C1        C        0.625        0.351852        0.4139955474452554        0        
C2        C        0.65625        0.407408        0.4139955474452554        0        
C3        C        0.625        0.425925        0.4139955474452554        0        
C4        C        0.65625        0.37037        0.4139955474452554        0        
C1        C        0.625        0.46296300000000007        0.4139955474452554        0        
C2        C        0.65625        0.518519        0.4139955474452554        0        
C3        C        0.625        0.537037        0.4139955474452554        0        
C4        C        0.65625        0.481481        0.4139955474452554        0        
C1        C        0.625        0.574075        0.4139955474452554        0        
C2        C        0.65625        0.62963        0.4139955474452554        0        
C3        C        0.625        0.648148        0.4139955474452554        0        
C4        C        0.65625        0.592592        0.4139955474452554        0        
C1        C        0.6875        0.018519        0.4139955474452554        0        
C2        C        0.71875        0.074075        0.4139955474452554        0        
C3        C        0.6875        0.092592        0.4139955474452554        0        
C4        C        0.71875        0.037037        0.4139955474452554        0        
C1        C        0.6875        0.12963        0.4139955474452554        0        
C2        C        0.71875        0.185185        0.4139955474452554        0        
C3        C        0.6875        0.203703        0.4139955474452554        0        
C4        C        0.71875        0.148148        0.4139955474452554        0        
C1        C        0.6875        0.24074099999999998        0.4139955474452554        0        
C2        C        0.71875        0.296297        0.4139955474452554        0        
C3        C        0.6875        0.314815        0.4139955474452554        0        
C4        C        0.71875        0.259259        0.4139955474452554        0        
C1        C        0.6875        0.351852        0.4139955474452554        0        
C2        C        0.71875        0.407408        0.4139955474452554        0        
C3        C        0.6875        0.425925        0.4139955474452554        0        
C4        C        0.71875        0.37037        0.4139955474452554        0        
C1        C        0.6875        0.46296300000000007        0.4139955474452554        0        
C2        C        0.71875        0.518519        0.4139955474452554        0        
C3        C        0.6875        0.537037        0.4139955474452554        0        
C4        C        0.71875        0.481481        0.4139955474452554        0        
C1        C        0.6875        0.574075        0.4139955474452554        0        
C2        C        0.71875        0.62963        0.4139955474452554        0        
C3        C        0.6875        0.648148        0.4139955474452554        0        
C4        C        0.71875        0.592592        0.4139955474452554        0        
C1        C        0.75        0.018519        0.4139955474452554        0        
C2        C        0.78125        0.074075        0.4139955474452554        0        
C3        C        0.75        0.092592        0.4139955474452554        0        
C4        C        0.78125        0.037037        0.4139955474452554        0        
C1        C        0.75        0.12963        0.4139955474452554        0        
C2        C        0.78125        0.185185        0.4139955474452554        0        
C3        C        0.75        0.203703        0.4139955474452554        0        
C4        C        0.78125        0.148148        0.4139955474452554        0        
C1        C        0.75        0.24074099999999998        0.4139955474452554        0        
C2        C        0.78125        0.296297        0.4139955474452554        0        
C3        C        0.75        0.314815        0.4139955474452554        0        
C4        C        0.78125        0.259259        0.4139955474452554        0        
C1        C        0.75        0.351852        0.4139955474452554        0        
C2        C        0.78125        0.407408        0.4139955474452554        0        
C3        C        0.75        0.425925        0.4139955474452554        0        
C4        C        0.78125        0.37037        0.4139955474452554        0        
C1        C        0.75        0.46296300000000007        0.4139955474452554        0        
C2        C        0.78125        0.518519        0.4139955474452554        0        
C3        C        0.75        0.537037        0.4139955474452554        0        
C4        C        0.78125        0.481481        0.4139955474452554        0        
C1        C        0.75        0.574075        0.4139955474452554        0        
C2        C        0.78125        0.62963        0.4139955474452554        0        
C3        C        0.75        0.648148        0.4139955474452554        0        
C4        C        0.78125        0.592592        0.4139955474452554        0        
C1        C        0.8125        0.018519        0.4139955474452554        0        
C2        C        0.84375        0.074075        0.4139955474452554        0        
C3        C        0.8125        0.092592        0.4139955474452554        0        
C4        C        0.84375        0.037037        0.4139955474452554        0        
C1        C        0.8125        0.12963        0.4139955474452554        0        
C2        C        0.84375        0.185185        0.4139955474452554        0        
C3        C        0.8125        0.203703        0.4139955474452554        0        
C4        C        0.84375        0.148148        0.4139955474452554        0        
C1        C        0.8125        0.24074099999999998        0.4139955474452554        0        
C2        C        0.84375        0.296297        0.4139955474452554        0        
C3        C        0.8125        0.314815        0.4139955474452554        0        
C4        C        0.84375        0.259259        0.4139955474452554        0        
C1        C        0.8125        0.351852        0.4139955474452554        0        
C2        C        0.84375        0.407408        0.4139955474452554        0        
C3        C        0.8125        0.425925        0.4139955474452554        0        
C4        C        0.84375        0.37037        0.4139955474452554        0        
C1        C        0.8125        0.46296300000000007        0.4139955474452554        0        
C2        C        0.84375        0.518519        0.4139955474452554        0        
C3        C        0.8125        0.537037        0.4139955474452554        0        
C4        C        0.84375        0.481481        0.4139955474452554        0        
C1        C        0.8125        0.574075        0.4139955474452554        0        
C2        C        0.84375        0.62963        0.4139955474452554        0        
C3        C        0.8125        0.648148        0.4139955474452554        0        
C4        C        0.84375        0.592592        0.4139955474452554        0        
C1        C        0.875        0.018519        0.4139955474452554        0        
C2        C        0.9062500000000001        0.074075        0.4139955474452554        0        
C3        C        0.875        0.092592        0.4139955474452554        0        
C4        C        0.9062500000000001        0.037037        0.4139955474452554        0        
C1        C        0.875        0.12963        0.4139955474452554        0        
C2        C        0.9062500000000001        0.185185        0.4139955474452554        0        
C3        C        0.875        0.203703        0.4139955474452554        0        
C4        C        0.9062500000000001        0.148148        0.4139955474452554        0        
C1        C        0.875        0.24074099999999998        0.4139955474452554        0        
C2        C        0.9062500000000001        0.296297        0.4139955474452554        0        
C3        C        0.875        0.314815        0.4139955474452554        0        
C4        C        0.9062500000000001        0.259259        0.4139955474452554        0        
C1        C        0.875        0.351852        0.4139955474452554        0        
C2        C        0.9062500000000001        0.407408        0.4139955474452554        0        
C3        C        0.875        0.425925        0.4139955474452554        0        
C4        C        0.9062500000000001        0.37037        0.4139955474452554        0        
C1        C        0.875        0.46296300000000007        0.4139955474452554        0        
C2        C        0.9062500000000001        0.518519        0.4139955474452554        0        
C3        C        0.875        0.537037        0.4139955474452554        0        
C4        C        0.9062500000000001        0.481481        0.4139955474452554        0        
C1        C        0.875        0.574075        0.4139955474452554        0        
C2        C        0.9062500000000001        0.62963        0.4139955474452554        0        
C3        C        0.875        0.648148        0.4139955474452554        0        
C4        C        0.9062500000000001        0.592592        0.4139955474452554        0        
C1        C        0.9375        0.018519        0.4139955474452554        0        
C2        C        0.9687500000000001        0.074075        0.4139955474452554        0        
C3        C        0.9375        0.092592        0.4139955474452554        0        
C4        C        0.9687500000000001        0.037037        0.4139955474452554        0        
C1        C        0.9375        0.12963        0.4139955474452554        0        
C2        C        0.9687500000000001        0.185185        0.4139955474452554        0        
C3        C        0.9375        0.203703        0.4139955474452554        0        
C4        C        0.9687500000000001        0.148148        0.4139955474452554        0        
C1        C        0.9375        0.24074099999999998        0.4139955474452554        0        
C2        C        0.9687500000000001        0.296297        0.4139955474452554        0        
C3        C        0.9375        0.314815        0.4139955474452554        0        
C4        C        0.9687500000000001        0.259259        0.4139955474452554        0        
C1        C        0.9375        0.351852        0.4139955474452554        0        
C2        C        0.9687500000000001        0.407408        0.4139955474452554        0        
C3        C        0.9375        0.425925        0.4139955474452554        0        
C4        C        0.9687500000000001        0.37037        0.4139955474452554        0        
C1        C        0.9375        0.46296300000000007        0.4139955474452554        0        
C2        C        0.9687500000000001        0.518519        0.4139955474452554        0        
C3        C        0.9375        0.537037        0.4139955474452554        0        
C4        C        0.9687500000000001        0.481481        0.4139955474452554        0        
C1        C        0.9375        0.574075        0.4139955474452554        0        
C2        C        0.9687500000000001        0.62963        0.4139955474452554        0        
C3        C        0.9375        0.648148        0.4139955474452554        0        
C4        C        0.9687500000000001        0.592592        0.4139955474452554        0        
C1        C        0.0        0.685186        0.4139955474452554        0        
C1        C        0.0625        0.685186        0.4139955474452554        0        
C1        C        0.125        0.685186        0.4139955474452554        0        
C1        C        0.1875        0.685186        0.4139955474452554        0        
C1        C        0.25        0.685186        0.4139955474452554        0        
C1        C        0.3125        0.685186        0.4139955474452554        0        
C1        C        0.375        0.685186        0.4139955474452554        0        
C1        C        0.4375        0.685186        0.4139955474452554        0        
C1        C        0.5        0.685186        0.4139955474452554        0        
C1        C        0.5625        0.685186        0.4139955474452554        0        
C1        C        0.625        0.685186        0.4139955474452554        0        
C1        C        0.6875        0.685186        0.4139955474452554        0        
C1        C        0.75        0.685186        0.4139955474452554        0        
C1        C        0.8125        0.685186        0.4139955474452554        0        
C1        C        0.875        0.685186        0.4139955474452554        0        
C1        C        0.9375        0.685186        0.4139955474452554        0        
C2        C        0.03125        0.740741        0.4139955474452554        0        
C2        C        0.09375        0.740741        0.4139955474452554        0        
C2        C        0.15625        0.740741        0.4139955474452554        0        
C2        C        0.21875        0.740741        0.4139955474452554        0        
C2        C        0.28125        0.740741        0.4139955474452554        0        
C2        C        0.34375        0.740741        0.4139955474452554        0        
C2        C        0.40625        0.740741        0.4139955474452554        0        
C2        C        0.46875        0.740741        0.4139955474452554        0        
C2        C        0.53125        0.740741        0.4139955474452554        0        
C2        C        0.59375        0.740741        0.4139955474452554        0        
C2        C        0.65625        0.740741        0.4139955474452554        0        
C2        C        0.71875        0.740741        0.4139955474452554        0        
C2        C        0.78125        0.740741        0.4139955474452554        0        
C2        C        0.84375        0.740741        0.4139955474452554        0        
C2        C        0.9062500000000001        0.740741        0.4139955474452554        0        
C2        C        0.9687500000000001        0.740741        0.4139955474452554        0        
C3        C        0.0        0.759259        0.4139955474452554        0        
C3        C        0.0625        0.759259        0.4139955474452554        0        
C3        C        0.125        0.759259        0.4139955474452554        0        
C3        C        0.1875        0.759259        0.4139955474452554        0        
C3        C        0.25        0.759259        0.4139955474452554        0        
C3        C        0.3125        0.759259        0.4139955474452554        0        
C3        C        0.375        0.759259        0.4139955474452554        0        
C3        C        0.4375        0.759259        0.4139955474452554        0        
C3        C        0.5        0.759259        0.4139955474452554        0        
C3        C        0.5625        0.759259        0.4139955474452554        0        
C3        C        0.625        0.759259        0.4139955474452554        0        
C3        C        0.6875        0.759259        0.4139955474452554        0        
C3        C        0.75        0.759259        0.4139955474452554        0        
C3        C        0.8125        0.759259        0.4139955474452554        0        
C3        C        0.875        0.759259        0.4139955474452554        0        
C3        C        0.9375        0.759259        0.4139955474452554        0        
C4        C        0.03125        0.703703        0.4139955474452554        0        
C4        C        0.09375        0.703703        0.4139955474452554        0        
C4        C        0.15625        0.703703        0.4139955474452554        0        
C4        C        0.21875        0.703703        0.4139955474452554        0        
C4        C        0.28125        0.703703        0.4139955474452554        0        
C4        C        0.34375        0.703703        0.4139955474452554        0        
C4        C        0.40625        0.703703        0.4139955474452554        0        
C4        C        0.46875        0.703703        0.4139955474452554        0        
C4        C        0.53125        0.703703        0.4139955474452554        0        
C4        C        0.59375        0.703703        0.4139955474452554        0        
C4        C        0.65625        0.703703        0.4139955474452554        0        
C4        C        0.71875        0.703703        0.4139955474452554        0        
C4        C        0.78125        0.703703        0.4139955474452554        0        
C4        C        0.84375        0.703703        0.4139955474452554        0        
C4        C        0.9062500000000001        0.703703        0.4139955474452554        0        
C4        C        0.9687500000000001        0.703703        0.4139955474452554        0        
C1        C        0.0        0.796297        0.4139955474452554        0        
C1        C        0.0625        0.796297        0.4139955474452554        0        
C1        C        0.125        0.796297        0.4139955474452554        0        
C1        C        0.1875        0.796297        0.4139955474452554        0        
C1        C        0.25        0.796297        0.4139955474452554        0        
C1        C        0.3125        0.796297        0.4139955474452554        0        
C1        C        0.375        0.796297        0.4139955474452554        0        
C1        C        0.4375        0.796297        0.4139955474452554        0        
C1        C        0.5        0.796297        0.4139955474452554        0        
C1        C        0.5625        0.796297        0.4139955474452554        0        
C1        C        0.625        0.796297        0.4139955474452554        0        
C1        C        0.6875        0.796297        0.4139955474452554        0        
C1        C        0.75        0.796297        0.4139955474452554        0        
C1        C        0.8125        0.796297        0.4139955474452554        0        
C1        C        0.875        0.796297        0.4139955474452554        0        
C1        C        0.9375        0.796297        0.4139955474452554        0        
C2        C        0.03125        0.851852        0.4139955474452554        0        
C2        C        0.09375        0.851852        0.4139955474452554        0        
C2        C        0.15625        0.851852        0.4139955474452554        0        
C2        C        0.21875        0.851852        0.4139955474452554        0        
C2        C        0.28125        0.851852        0.4139955474452554        0        
C2        C        0.34375        0.851852        0.4139955474452554        0        
C2        C        0.40625        0.851852        0.4139955474452554        0        
C2        C        0.46875        0.851852        0.4139955474452554        0        
C2        C        0.53125        0.851852        0.4139955474452554        0        
C2        C        0.59375        0.851852        0.4139955474452554        0        
C2        C        0.65625        0.851852        0.4139955474452554        0        
C2        C        0.71875        0.851852        0.4139955474452554        0        
C2        C        0.78125        0.851852        0.4139955474452554        0        
C2        C        0.84375        0.851852        0.4139955474452554        0        
C2        C        0.9062500000000001        0.851852        0.4139955474452554        0        
C2        C        0.9687500000000001        0.851852        0.4139955474452554        0        
C3        C        0.0        0.87037        0.4139955474452554        0        
C3        C        0.0625        0.87037        0.4139955474452554        0        
C3        C        0.125        0.87037        0.4139955474452554        0        
C3        C        0.1875        0.87037        0.4139955474452554        0        
C3        C        0.25        0.87037        0.4139955474452554        0        
C3        C        0.3125        0.87037        0.4139955474452554        0        
C3        C        0.375        0.87037        0.4139955474452554        0        
C3        C        0.4375        0.87037        0.4139955474452554        0        
C3        C        0.5        0.87037        0.4139955474452554        0        
C3        C        0.5625        0.87037        0.4139955474452554        0        
C3        C        0.625        0.87037        0.4139955474452554        0        
C3        C        0.6875        0.87037        0.4139955474452554        0        
C3        C        0.75        0.87037        0.4139955474452554        0        
C3        C        0.8125        0.87037        0.4139955474452554        0        
C3        C        0.875        0.87037        0.4139955474452554        0        
C3        C        0.9375        0.87037        0.4139955474452554        0        
C4        C        0.03125        0.814814        0.4139955474452554        0        
C4        C        0.09375        0.814814        0.4139955474452554        0        
C4        C        0.15625        0.814814        0.4139955474452554        0        
C4        C        0.21875        0.814814        0.4139955474452554        0        
C4        C        0.28125        0.814814        0.4139955474452554        0        
C4        C        0.34375        0.814814        0.4139955474452554        0        
C4        C        0.40625        0.814814        0.4139955474452554        0        
C4        C        0.46875        0.814814        0.4139955474452554        0        
C4        C        0.53125        0.814814        0.4139955474452554        0        
C4        C        0.59375        0.814814        0.4139955474452554        0        
C4        C        0.65625        0.814814        0.4139955474452554        0        
C4        C        0.71875        0.814814        0.4139955474452554        0        
C4        C        0.78125        0.814814        0.4139955474452554        0        
C4        C        0.84375        0.814814        0.4139955474452554        0        
C4        C        0.9062500000000001        0.814814        0.4139955474452554        0        
C4        C        0.9687500000000001        0.814814        0.4139955474452554        0        
C1        C        0.0        0.907408        0.4139955474452554        0        
C1        C        0.0625        0.907408        0.4139955474452554        0        
C1        C        0.125        0.907408        0.4139955474452554        0        
C1        C        0.1875        0.907408        0.4139955474452554        0        
C1        C        0.25        0.907408        0.4139955474452554        0        
C1        C        0.3125        0.907408        0.4139955474452554        0        
C1        C        0.375        0.907408        0.4139955474452554        0        
C1        C        0.4375        0.907408        0.4139955474452554        0        
C1        C        0.5        0.907408        0.4139955474452554        0        
C1        C        0.5625        0.907408        0.4139955474452554        0        
C1        C        0.625        0.907408        0.4139955474452554        0        
C1        C        0.6875        0.907408        0.4139955474452554        0        
C1        C        0.75        0.907408        0.4139955474452554        0        
C1        C        0.8125        0.907408        0.4139955474452554        0        
C1        C        0.875        0.907408        0.4139955474452554        0        
C1        C        0.9375        0.907408        0.4139955474452554        0        
C2        C        0.03125        0.962963        0.4139955474452554        0        
C2        C        0.09375        0.962963        0.4139955474452554        0        
C2        C        0.15625        0.962963        0.4139955474452554        0        
C2        C        0.21875        0.962963        0.4139955474452554        0        
C2        C        0.28125        0.962963        0.4139955474452554        0        
C2        C        0.34375        0.962963        0.4139955474452554        0        
C2        C        0.40625        0.962963        0.4139955474452554        0        
C2        C        0.46875        0.962963        0.4139955474452554        0        
C2        C        0.53125        0.962963        0.4139955474452554        0        
C2        C        0.59375        0.962963        0.4139955474452554        0        
C2        C        0.65625        0.962963        0.4139955474452554        0        
C2        C        0.71875        0.962963        0.4139955474452554        0        
C2        C        0.78125        0.962963        0.4139955474452554        0        
C2        C        0.84375        0.962963        0.4139955474452554        0        
C2        C        0.9062500000000001        0.962963        0.4139955474452554        0        
C2        C        0.9687500000000001        0.962963        0.4139955474452554        0        
C3        C        0.0        0.9814809999999999        0.4139955474452554        0        
C3        C        0.0625        0.9814809999999999        0.4139955474452554        0        
C3        C        0.125        0.9814809999999999        0.4139955474452554        0        
C3        C        0.1875        0.9814809999999999        0.4139955474452554        0        
C3        C        0.25        0.9814809999999999        0.4139955474452554        0        
C3        C        0.3125        0.9814809999999999        0.4139955474452554        0        
C3        C        0.375        0.9814809999999999        0.4139955474452554        0        
C3        C        0.4375        0.9814809999999999        0.4139955474452554        0        
C3        C        0.5        0.9814809999999999        0.4139955474452554        0        
C3        C        0.5625        0.9814809999999999        0.4139955474452554        0        
C3        C        0.625        0.9814809999999999        0.4139955474452554        0        
C3        C        0.6875        0.9814809999999999        0.4139955474452554        0        
C3        C        0.75        0.9814809999999999        0.4139955474452554        0        
C3        C        0.8125        0.9814809999999999        0.4139955474452554        0        
C3        C        0.875        0.9814809999999999        0.4139955474452554        0        
C3        C        0.9375        0.9814809999999999        0.4139955474452554        0        
C4        C        0.03125        0.925925        0.4139955474452554        0        
C4        C        0.09375        0.925925        0.4139955474452554        0        
C4        C        0.15625        0.925925        0.4139955474452554        0        
C4        C        0.21875        0.925925        0.4139955474452554        0        
C4        C        0.28125        0.925925        0.4139955474452554        0        
C4        C        0.34375        0.925925        0.4139955474452554        0        
C4        C        0.40625        0.925925        0.4139955474452554        0        
C4        C        0.46875        0.925925        0.4139955474452554        0        
C4        C        0.53125        0.925925        0.4139955474452554        0        
C4        C        0.59375        0.925925        0.4139955474452554        0        
C4        C        0.65625        0.925925        0.4139955474452554        0        
C4        C        0.71875        0.925925        0.4139955474452554        0        
C4        C        0.78125        0.925925        0.4139955474452554        0        
C4        C        0.84375        0.925925        0.4139955474452554        0        
C4        C        0.9062500000000001        0.925925        0.4139955474452554        0        
C4        C        0.9687500000000001        0.925925        0.4139955474452554        0        
C_FG        C        0.0        0.018519        0.658521094890511        0.08        
C2        C        0.03125        0.074075        0.658521094890511        0        
C3        C        0.0        0.092592        0.658521094890511        0        
C4        C        0.03125        0.037037        0.658521094890511        0        
C1        C        0.0        0.12963        0.658521094890511        0        
C2        C        0.03125        0.185185        0.658521094890511        0        
C_FG        C        0.0        0.203703        0.658521094890511        0.08        
C4        C        0.03125        0.148148        0.658521094890511        0        
C1        C        0.0        0.24074099999999998        0.658521094890511        0        
C2        C        0.03125        0.296297        0.658521094890511        0        
C3        C        0.0        0.314815        0.658521094890511        0        
C4        C        0.03125        0.259259        0.658521094890511        0        
C_FG        C        0.0        0.351852        0.658521094890511        0.08        
C2        C        0.03125        0.407408        0.658521094890511        0        
C3        C        0.0        0.425925        0.658521094890511        0        
C4        C        0.03125        0.37037        0.658521094890511        0        
C1        C        0.0        0.46296300000000007        0.658521094890511        0        
C2        C        0.03125        0.518519        0.658521094890511        0        
C_FG        C        0.0        0.537037        0.658521094890511        0.08        
C4        C        0.03125        0.481481        0.658521094890511        0        
C1        C        0.0        0.574075        0.658521094890511        0        
C2        C        0.03125        0.62963        0.658521094890511        0        
C3        C        0.0        0.648148        0.658521094890511        0        
C4        C        0.03125        0.592592        0.658521094890511        0        
C1        C        0.0625        0.018519        0.658521094890511        0        
C2        C        0.09375        0.074075        0.658521094890511        0        
C3        C        0.0625        0.092592        0.658521094890511        0        
C4        C        0.09375        0.037037        0.658521094890511        0        
C1        C        0.0625        0.12963        0.658521094890511        0        
C2        C        0.09375        0.185185        0.658521094890511        0        
C3        C        0.0625        0.203703        0.658521094890511        0        
C4        C        0.09375        0.148148        0.658521094890511        0        
C1        C        0.0625        0.24074099999999998        0.658521094890511        0        
C2        C        0.09375        0.296297        0.658521094890511        0        
C3        C        0.0625        0.314815        0.658521094890511        0        
C4        C        0.09375        0.259259        0.658521094890511        0        
C1        C        0.0625        0.351852        0.658521094890511        0        
C2        C        0.09375        0.407408        0.658521094890511        0        
C3        C        0.0625        0.425925        0.658521094890511        0        
C4        C        0.09375        0.37037        0.658521094890511        0        
C1        C        0.0625        0.46296300000000007        0.658521094890511        0        
C2        C        0.09375        0.518519        0.658521094890511        0        
C3        C        0.0625        0.537037        0.658521094890511        0        
C4        C        0.09375        0.481481        0.658521094890511        0        
C1        C        0.0625        0.574075        0.658521094890511        0        
C2        C        0.09375        0.62963        0.658521094890511        0        
C3        C        0.0625        0.648148        0.658521094890511        0        
C4        C        0.09375        0.592592        0.658521094890511        0        
C1        C        0.125        0.018519        0.658521094890511        0        
C2        C        0.15625        0.074075        0.658521094890511        0        
C3        C        0.125        0.092592        0.658521094890511        0        
C4        C        0.15625        0.037037        0.658521094890511        0        
C1        C        0.125        0.12963        0.658521094890511        0        
C2        C        0.15625        0.185185        0.658521094890511        0        
C3        C        0.125        0.203703        0.658521094890511        0        
C4        C        0.15625        0.148148        0.658521094890511        0        
C1        C        0.125        0.24074099999999998        0.658521094890511        0        
C2        C        0.15625        0.296297        0.658521094890511        0        
C3        C        0.125        0.314815        0.658521094890511        0        
C4        C        0.15625        0.259259        0.658521094890511        0        
C1        C        0.125        0.351852        0.658521094890511        0        
C2        C        0.15625        0.407408        0.658521094890511        0        
C3        C        0.125        0.425925        0.658521094890511        0        
C4        C        0.15625        0.37037        0.658521094890511        0        
C1        C        0.125        0.46296300000000007        0.658521094890511        0        
C2        C        0.15625        0.518519        0.658521094890511        0        
C3        C        0.125        0.537037        0.658521094890511        0        
C4        C        0.15625        0.481481        0.658521094890511        0        
C1        C        0.125        0.574075        0.658521094890511        0        
C2        C        0.15625        0.62963        0.658521094890511        0        
C3        C        0.125        0.648148        0.658521094890511        0        
C4        C        0.15625        0.592592        0.658521094890511        0        
C1        C        0.1875        0.018519        0.658521094890511        0        
C2        C        0.21875        0.074075        0.658521094890511        0        
C3        C        0.1875        0.092592        0.658521094890511        0        
C4        C        0.21875        0.037037        0.658521094890511        0        
C1        C        0.1875        0.12963        0.658521094890511        0        
C2        C        0.21875        0.185185        0.658521094890511        0        
C3        C        0.1875        0.203703        0.658521094890511        0        
C4        C        0.21875        0.148148        0.658521094890511        0        
C1        C        0.1875        0.24074099999999998        0.658521094890511        0        
C2        C        0.21875        0.296297        0.658521094890511        0        
C3        C        0.1875        0.314815        0.658521094890511        0        
C4        C        0.21875        0.259259        0.658521094890511        0        
C1        C        0.1875        0.351852        0.658521094890511        0        
C2        C        0.21875        0.407408        0.658521094890511        0        
C3        C        0.1875        0.425925        0.658521094890511        0        
C4        C        0.21875        0.37037        0.658521094890511        0        
C1        C        0.1875        0.46296300000000007        0.658521094890511        0        
C2        C        0.21875        0.518519        0.658521094890511        0        
C3        C        0.1875        0.537037        0.658521094890511        0        
C4        C        0.21875        0.481481        0.658521094890511        0        
C1        C        0.1875        0.574075        0.658521094890511        0        
C2        C        0.21875        0.62963        0.658521094890511        0        
C3        C        0.1875        0.648148        0.658521094890511        0        
C4        C        0.21875        0.592592        0.658521094890511        0        
C_FG        C        0.25        0.018519        0.658521094890511        0.08        
C2        C        0.28125        0.074075        0.658521094890511        0        
C3        C        0.25        0.092592        0.658521094890511        0        
C4        C        0.28125        0.037037        0.658521094890511        0        
C1        C        0.25        0.12963        0.658521094890511        0        
C2        C        0.28125        0.185185        0.658521094890511        0        
C_FG        C        0.25        0.203703        0.658521094890511        0.08        
C4        C        0.28125        0.148148        0.658521094890511        0        
C1        C        0.25        0.24074099999999998        0.658521094890511        0        
C2        C        0.28125        0.296297        0.658521094890511        0        
C3        C        0.25        0.314815        0.658521094890511        0        
C4        C        0.28125        0.259259        0.658521094890511        0        
C_FG        C        0.25        0.351852        0.658521094890511        0.08        
C2        C        0.28125        0.407408        0.658521094890511        0        
C3        C        0.25        0.425925        0.658521094890511        0        
C4        C        0.28125        0.37037        0.658521094890511        0        
C1        C        0.25        0.46296300000000007        0.658521094890511        0        
C2        C        0.28125        0.518519        0.658521094890511        0        
C_FG        C        0.25        0.537037        0.658521094890511        0.08        
C4        C        0.28125        0.481481        0.658521094890511        0        
C1        C        0.25        0.574075        0.658521094890511        0        
C2        C        0.28125        0.62963        0.658521094890511        0        
C3        C        0.25        0.648148        0.658521094890511        0        
C4        C        0.28125        0.592592        0.658521094890511        0        
C1        C        0.3125        0.018519        0.658521094890511        0        
C2        C        0.34375        0.074075        0.658521094890511        0        
C3        C        0.3125        0.092592        0.658521094890511        0        
C4        C        0.34375        0.037037        0.658521094890511        0        
C1        C        0.3125        0.12963        0.658521094890511        0        
C2        C        0.34375        0.185185        0.658521094890511        0        
C3        C        0.3125        0.203703        0.658521094890511        0        
C4        C        0.34375        0.148148        0.658521094890511        0        
C1        C        0.3125        0.24074099999999998        0.658521094890511        0        
C2        C        0.34375        0.296297        0.658521094890511        0        
C3        C        0.3125        0.314815        0.658521094890511        0        
C4        C        0.34375        0.259259        0.658521094890511        0        
C1        C        0.3125        0.351852        0.658521094890511        0        
C2        C        0.34375        0.407408        0.658521094890511        0        
C3        C        0.3125        0.425925        0.658521094890511        0        
C4        C        0.34375        0.37037        0.658521094890511        0        
C1        C        0.3125        0.46296300000000007        0.658521094890511        0        
C2        C        0.34375        0.518519        0.658521094890511        0        
C3        C        0.3125        0.537037        0.658521094890511        0        
C4        C        0.34375        0.481481        0.658521094890511        0        
C1        C        0.3125        0.574075        0.658521094890511        0        
C2        C        0.34375        0.62963        0.658521094890511        0        
C3        C        0.3125        0.648148        0.658521094890511        0        
C4        C        0.34375        0.592592        0.658521094890511        0        
C1        C        0.375        0.018519        0.658521094890511        0        
C2        C        0.40625        0.074075        0.658521094890511        0        
C3        C        0.375        0.092592        0.658521094890511        0        
C4        C        0.40625        0.037037        0.658521094890511        0        
C1        C        0.375        0.12963        0.658521094890511        0        
C2        C        0.40625        0.185185        0.658521094890511        0        
C3        C        0.375        0.203703        0.658521094890511        0        
C4        C        0.40625        0.148148        0.658521094890511        0        
C1        C        0.375        0.24074099999999998        0.658521094890511        0        
C2        C        0.40625        0.296297        0.658521094890511        0        
C3        C        0.375        0.314815        0.658521094890511        0        
C4        C        0.40625        0.259259        0.658521094890511        0        
C1        C        0.375        0.351852        0.658521094890511        0        
C2        C        0.40625        0.407408        0.658521094890511        0        
C3        C        0.375        0.425925        0.658521094890511        0        
C4        C        0.40625        0.37037        0.658521094890511        0        
C1        C        0.375        0.46296300000000007        0.658521094890511        0        
C2        C        0.40625        0.518519        0.658521094890511        0        
C3        C        0.375        0.537037        0.658521094890511        0        
C4        C        0.40625        0.481481        0.658521094890511        0        
C1        C        0.375        0.574075        0.658521094890511        0        
C2        C        0.40625        0.62963        0.658521094890511        0        
C3        C        0.375        0.648148        0.658521094890511        0        
C4        C        0.40625        0.592592        0.658521094890511        0        
C1        C        0.4375        0.018519        0.658521094890511        0        
C2        C        0.46875        0.074075        0.658521094890511        0        
C3        C        0.4375        0.092592        0.658521094890511        0        
C4        C        0.46875        0.037037        0.658521094890511        0        
C1        C        0.4375        0.12963        0.658521094890511        0        
C2        C        0.46875        0.185185        0.658521094890511        0        
C3        C        0.4375        0.203703        0.658521094890511        0        
C4        C        0.46875        0.148148        0.658521094890511        0        
C1        C        0.4375        0.24074099999999998        0.658521094890511        0        
C2        C        0.46875        0.296297        0.658521094890511        0        
C3        C        0.4375        0.314815        0.658521094890511        0        
C4        C        0.46875        0.259259        0.658521094890511        0        
C1        C        0.4375        0.351852        0.658521094890511        0        
C2        C        0.46875        0.407408        0.658521094890511        0        
C3        C        0.4375        0.425925        0.658521094890511        0        
C4        C        0.46875        0.37037        0.658521094890511        0        
C1        C        0.4375        0.46296300000000007        0.658521094890511        0        
C2        C        0.46875        0.518519        0.658521094890511        0        
C3        C        0.4375        0.537037        0.658521094890511        0        
C4        C        0.46875        0.481481        0.658521094890511        0        
C1        C        0.4375        0.574075        0.658521094890511        0        
C2        C        0.46875        0.62963        0.658521094890511        0        
C3        C        0.4375        0.648148        0.658521094890511        0        
C4        C        0.46875        0.592592        0.658521094890511        0        
C1        C        0.5        0.018519        0.658521094890511        0        
C2        C        0.53125        0.074075        0.658521094890511        0        
C3        C        0.5        0.092592        0.658521094890511        0        
C4        C        0.53125        0.037037        0.658521094890511        0        
C1        C        0.5        0.12963        0.658521094890511        0        
C2        C        0.53125        0.185185        0.658521094890511        0        
C3        C        0.5        0.203703        0.658521094890511        0        
C4        C        0.53125        0.148148        0.658521094890511        0        
C1        C        0.5        0.24074099999999998        0.658521094890511        0        
C2        C        0.53125        0.296297        0.658521094890511        0        
C3        C        0.5        0.314815        0.658521094890511        0        
C4        C        0.53125        0.259259        0.658521094890511        0        
C1        C        0.5        0.351852        0.658521094890511        0        
C2        C        0.53125        0.407408        0.658521094890511        0        
C3        C        0.5        0.425925        0.658521094890511        0        
C4        C        0.53125        0.37037        0.658521094890511        0        
C1        C        0.5        0.46296300000000007        0.658521094890511        0        
C2        C        0.53125        0.518519        0.658521094890511        0        
C3        C        0.5        0.537037        0.658521094890511        0        
C4        C        0.53125        0.481481        0.658521094890511        0        
C1        C        0.5        0.574075        0.658521094890511        0        
C2        C        0.53125        0.62963        0.658521094890511        0        
C3        C        0.5        0.648148        0.658521094890511        0        
C4        C        0.53125        0.592592        0.658521094890511        0        
C1        C        0.5625        0.018519        0.658521094890511        0        
C2        C        0.59375        0.074075        0.658521094890511        0        
C3        C        0.5625        0.092592        0.658521094890511        0        
C4        C        0.59375        0.037037        0.658521094890511        0        
C1        C        0.5625        0.12963        0.658521094890511        0        
C2        C        0.59375        0.185185        0.658521094890511        0        
C3        C        0.5625        0.203703        0.658521094890511        0        
C4        C        0.59375        0.148148        0.658521094890511        0        
C1        C        0.5625        0.24074099999999998        0.658521094890511        0        
C2        C        0.59375        0.296297        0.658521094890511        0        
C3        C        0.5625        0.314815        0.658521094890511        0        
C4        C        0.59375        0.259259        0.658521094890511        0        
C1        C        0.5625        0.351852        0.658521094890511        0        
C2        C        0.59375        0.407408        0.658521094890511        0        
C3        C        0.5625        0.425925        0.658521094890511        0        
C4        C        0.59375        0.37037        0.658521094890511        0        
C1        C        0.5625        0.46296300000000007        0.658521094890511        0        
C2        C        0.59375        0.518519        0.658521094890511        0        
C3        C        0.5625        0.537037        0.658521094890511        0        
C4        C        0.59375        0.481481        0.658521094890511        0        
C1        C        0.5625        0.574075        0.658521094890511        0        
C2        C        0.59375        0.62963        0.658521094890511        0        
C3        C        0.5625        0.648148        0.658521094890511        0        
C4        C        0.59375        0.592592        0.658521094890511        0        
C1        C        0.625        0.018519        0.658521094890511        0        
C2        C        0.65625        0.074075        0.658521094890511        0        
C3        C        0.625        0.092592        0.658521094890511        0        
C4        C        0.65625        0.037037        0.658521094890511        0        
C1        C        0.625        0.12963        0.658521094890511        0        
C2        C        0.65625        0.185185        0.658521094890511        0        
C3        C        0.625        0.203703        0.658521094890511        0        
C4        C        0.65625        0.148148        0.658521094890511        0        
C1        C        0.625        0.24074099999999998        0.658521094890511        0        
C2        C        0.65625        0.296297        0.658521094890511        0        
C3        C        0.625        0.314815        0.658521094890511        0        
C4        C        0.65625        0.259259        0.658521094890511        0        
C1        C        0.625        0.351852        0.658521094890511        0        
C2        C        0.65625        0.407408        0.658521094890511        0        
C3        C        0.625        0.425925        0.658521094890511        0        
C4        C        0.65625        0.37037        0.658521094890511        0        
C1        C        0.625        0.46296300000000007        0.658521094890511        0        
C2        C        0.65625        0.518519        0.658521094890511        0        
C3        C        0.625        0.537037        0.658521094890511        0        
C4        C        0.65625        0.481481        0.658521094890511        0        
C1        C        0.625        0.574075        0.658521094890511        0        
C2        C        0.65625        0.62963        0.658521094890511        0        
C3        C        0.625        0.648148        0.658521094890511        0        
C4        C        0.65625        0.592592        0.658521094890511        0        
C1        C        0.6875        0.018519        0.658521094890511        0        
C2        C        0.71875        0.074075        0.658521094890511        0        
C3        C        0.6875        0.092592        0.658521094890511        0        
C4        C        0.71875        0.037037        0.658521094890511        0        
C1        C        0.6875        0.12963        0.658521094890511        0        
C2        C        0.71875        0.185185        0.658521094890511        0        
C3        C        0.6875        0.203703        0.658521094890511        0        
C4        C        0.71875        0.148148        0.658521094890511        0        
C1        C        0.6875        0.24074099999999998        0.658521094890511        0        
C2        C        0.71875        0.296297        0.658521094890511        0        
C3        C        0.6875        0.314815        0.658521094890511        0        
C4        C        0.71875        0.259259        0.658521094890511        0        
C1        C        0.6875        0.351852        0.658521094890511        0        
C2        C        0.71875        0.407408        0.658521094890511        0        
C3        C        0.6875        0.425925        0.658521094890511        0        
C4        C        0.71875        0.37037        0.658521094890511        0        
C1        C        0.6875        0.46296300000000007        0.658521094890511        0        
C2        C        0.71875        0.518519        0.658521094890511        0        
C3        C        0.6875        0.537037        0.658521094890511        0        
C4        C        0.71875        0.481481        0.658521094890511        0        
C1        C        0.6875        0.574075        0.658521094890511        0        
C2        C        0.71875        0.62963        0.658521094890511        0        
C3        C        0.6875        0.648148        0.658521094890511        0        
C4        C        0.71875        0.592592        0.658521094890511        0        
C_FG        C        0.75        0.018519        0.658521094890511        0.08        
C2        C        0.78125        0.074075        0.658521094890511        0        
C3        C        0.75        0.092592        0.658521094890511        0        
C4        C        0.78125        0.037037        0.658521094890511        0        
C1        C        0.75        0.12963        0.658521094890511        0        
C2        C        0.78125        0.185185        0.658521094890511        0        
C_FG        C        0.75        0.203703        0.658521094890511        0.08        
C4        C        0.78125        0.148148        0.658521094890511        0        
C1        C        0.75        0.24074099999999998        0.658521094890511        0        
C2        C        0.78125        0.296297        0.658521094890511        0        
C3        C        0.75        0.314815        0.658521094890511        0        
C4        C        0.78125        0.259259        0.658521094890511        0        
C_FG        C        0.75        0.351852        0.658521094890511        0.08        
C2        C        0.78125        0.407408        0.658521094890511        0        
C3        C        0.75        0.425925        0.658521094890511        0        
C4        C        0.78125        0.37037        0.658521094890511        0        
C1        C        0.75        0.46296300000000007        0.658521094890511        0        
C2        C        0.78125        0.518519        0.658521094890511        0        
C_FG        C        0.75        0.537037        0.658521094890511        0.08        
C4        C        0.78125        0.481481        0.658521094890511        0        
C1        C        0.75        0.574075        0.658521094890511        0        
C2        C        0.78125        0.62963        0.658521094890511        0        
C3        C        0.75        0.648148        0.658521094890511        0        
C4        C        0.78125        0.592592        0.658521094890511        0        
C1        C        0.8125        0.018519        0.658521094890511        0        
C2        C        0.84375        0.074075        0.658521094890511        0        
C3        C        0.8125        0.092592        0.658521094890511        0        
C4        C        0.84375        0.037037        0.658521094890511        0        
C1        C        0.8125        0.12963        0.658521094890511        0        
C2        C        0.84375        0.185185        0.658521094890511        0        
C3        C        0.8125        0.203703        0.658521094890511        0        
C4        C        0.84375        0.148148        0.658521094890511        0        
C1        C        0.8125        0.24074099999999998        0.658521094890511        0        
C2        C        0.84375        0.296297        0.658521094890511        0        
C3        C        0.8125        0.314815        0.658521094890511        0        
C4        C        0.84375        0.259259        0.658521094890511        0        
C1        C        0.8125        0.351852        0.658521094890511        0        
C2        C        0.84375        0.407408        0.658521094890511        0        
C3        C        0.8125        0.425925        0.658521094890511        0        
C4        C        0.84375        0.37037        0.658521094890511        0        
C1        C        0.8125        0.46296300000000007        0.658521094890511        0        
C2        C        0.84375        0.518519        0.658521094890511        0        
C3        C        0.8125        0.537037        0.658521094890511        0        
C4        C        0.84375        0.481481        0.658521094890511        0        
C1        C        0.8125        0.574075        0.658521094890511        0        
C2        C        0.84375        0.62963        0.658521094890511        0        
C3        C        0.8125        0.648148        0.658521094890511        0        
C4        C        0.84375        0.592592        0.658521094890511        0        
C1        C        0.875        0.018519        0.658521094890511        0        
C2        C        0.9062500000000001        0.074075        0.658521094890511        0        
C3        C        0.875        0.092592        0.658521094890511        0        
C4        C        0.9062500000000001        0.037037        0.658521094890511        0        
C1        C        0.875        0.12963        0.658521094890511        0        
C2        C        0.9062500000000001        0.185185        0.658521094890511        0        
C3        C        0.875        0.203703        0.658521094890511        0        
C4        C        0.9062500000000001        0.148148        0.658521094890511        0        
C1        C        0.875        0.24074099999999998        0.658521094890511        0        
C2        C        0.9062500000000001        0.296297        0.658521094890511        0        
C3        C        0.875        0.314815        0.658521094890511        0        
C4        C        0.9062500000000001        0.259259        0.658521094890511        0        
C1        C        0.875        0.351852        0.658521094890511        0        
C2        C        0.9062500000000001        0.407408        0.658521094890511        0        
C3        C        0.875        0.425925        0.658521094890511        0        
C4        C        0.9062500000000001        0.37037        0.658521094890511        0        
C1        C        0.875        0.46296300000000007        0.658521094890511        0        
C2        C        0.9062500000000001        0.518519        0.658521094890511        0        
C3        C        0.875        0.537037        0.658521094890511        0        
C4        C        0.9062500000000001        0.481481        0.658521094890511        0        
C1        C        0.875        0.574075        0.658521094890511        0        
C2        C        0.9062500000000001        0.62963        0.658521094890511        0        
C3        C        0.875        0.648148        0.658521094890511        0        
C4        C        0.9062500000000001        0.592592        0.658521094890511        0        
C1        C        0.9375        0.018519        0.658521094890511        0        
C2        C        0.9687500000000001        0.074075        0.658521094890511        0        
C3        C        0.9375        0.092592        0.658521094890511        0        
C4        C        0.9687500000000001        0.037037        0.658521094890511        0        
C1        C        0.9375        0.12963        0.658521094890511        0        
C2        C        0.9687500000000001        0.185185        0.658521094890511        0        
C3        C        0.9375        0.203703        0.658521094890511        0        
C4        C        0.9687500000000001        0.148148        0.658521094890511        0        
C1        C        0.9375        0.24074099999999998        0.658521094890511        0        
C2        C        0.9687500000000001        0.296297        0.658521094890511        0        
C3        C        0.9375        0.314815        0.658521094890511        0        
C4        C        0.9687500000000001        0.259259        0.658521094890511        0        
C1        C        0.9375        0.351852        0.658521094890511        0        
C2        C        0.9687500000000001        0.407408        0.658521094890511        0        
C3        C        0.9375        0.425925        0.658521094890511        0        
C4        C        0.9687500000000001        0.37037        0.658521094890511        0        
C1        C        0.9375        0.46296300000000007        0.658521094890511        0        
C2        C        0.9687500000000001        0.518519        0.658521094890511        0        
C3        C        0.9375        0.537037        0.658521094890511        0        
C4        C        0.9687500000000001        0.481481        0.658521094890511        0        
C1        C        0.9375        0.574075        0.658521094890511        0        
C2        C        0.9687500000000001        0.62963        0.658521094890511        0        
C3        C        0.9375        0.648148        0.658521094890511        0        
C4        C        0.9687500000000001        0.592592        0.658521094890511        0        
C_FG        C        0.0        0.685186        0.658521094890511        0.08        
C1        C        0.0625        0.685186        0.658521094890511        0        
C1        C        0.125        0.685186        0.658521094890511        0        
C1        C        0.1875        0.685186        0.658521094890511        0        
C_FG        C        0.25        0.685186        0.658521094890511        0.08        
C1        C        0.3125        0.685186        0.658521094890511        0        
C1        C        0.375        0.685186        0.658521094890511        0        
C1        C        0.4375        0.685186        0.658521094890511        0        
C1        C        0.5        0.685186        0.658521094890511        0        
C1        C        0.5625        0.685186        0.658521094890511        0        
C1        C        0.625        0.685186        0.658521094890511        0        
C1        C        0.6875        0.685186        0.658521094890511        0        
C_FG        C        0.75        0.685186        0.658521094890511        0.08        
C1        C        0.8125        0.685186        0.658521094890511        0        
C1        C        0.875        0.685186        0.658521094890511        0        
C1        C        0.9375        0.685186        0.658521094890511        0        
C2        C        0.03125        0.740741        0.658521094890511        0        
C2        C        0.09375        0.740741        0.658521094890511        0        
C2        C        0.15625        0.740741        0.658521094890511        0        
C2        C        0.21875        0.740741        0.658521094890511        0        
C2        C        0.28125        0.740741        0.658521094890511        0        
C2        C        0.34375        0.740741        0.658521094890511        0        
C2        C        0.40625        0.740741        0.658521094890511        0        
C2        C        0.46875        0.740741        0.658521094890511        0        
C2        C        0.53125        0.740741        0.658521094890511        0        
C2        C        0.59375        0.740741        0.658521094890511        0        
C2        C        0.65625        0.740741        0.658521094890511        0        
C2        C        0.71875        0.740741        0.658521094890511        0        
C2        C        0.78125        0.740741        0.658521094890511        0        
C2        C        0.84375        0.740741        0.658521094890511        0        
C2        C        0.9062500000000001        0.740741        0.658521094890511        0        
C2        C        0.9687500000000001        0.740741        0.658521094890511        0        
C3        C        0.0        0.759259        0.658521094890511        0        
C3        C        0.0625        0.759259        0.658521094890511        0        
C3        C        0.125        0.759259        0.658521094890511        0        
C3        C        0.1875        0.759259        0.658521094890511        0        
C3        C        0.25        0.759259        0.658521094890511        0        
C3        C        0.3125        0.759259        0.658521094890511        0        
C3        C        0.375        0.759259        0.658521094890511        0        
C3        C        0.4375        0.759259        0.658521094890511        0        
C3        C        0.5        0.759259        0.658521094890511        0        
C3        C        0.5625        0.759259        0.658521094890511        0        
C3        C        0.625        0.759259        0.658521094890511        0        
C3        C        0.6875        0.759259        0.658521094890511        0        
C3        C        0.75        0.759259        0.658521094890511        0        
C3        C        0.8125        0.759259        0.658521094890511        0        
C3        C        0.875        0.759259        0.658521094890511        0        
C3        C        0.9375        0.759259        0.658521094890511        0        
C4        C        0.03125        0.703703        0.658521094890511        0        
C4        C        0.09375        0.703703        0.658521094890511        0        
C4        C        0.15625        0.703703        0.658521094890511        0        
C4        C        0.21875        0.703703        0.658521094890511        0        
C4        C        0.28125        0.703703        0.658521094890511        0        
C4        C        0.34375        0.703703        0.658521094890511        0        
C4        C        0.40625        0.703703        0.658521094890511        0        
C4        C        0.46875        0.703703        0.658521094890511        0        
C4        C        0.53125        0.703703        0.658521094890511        0        
C4        C        0.59375        0.703703        0.658521094890511        0        
C4        C        0.65625        0.703703        0.658521094890511        0        
C4        C        0.71875        0.703703        0.658521094890511        0        
C4        C        0.78125        0.703703        0.658521094890511        0        
C4        C        0.84375        0.703703        0.658521094890511        0        
C4        C        0.9062500000000001        0.703703        0.658521094890511        0        
C4        C        0.9687500000000001        0.703703        0.658521094890511        0        
C1        C        0.0        0.796297        0.658521094890511        0        
C1        C        0.0625        0.796297        0.658521094890511        0        
C1        C        0.125        0.796297        0.658521094890511        0        
C1        C        0.1875        0.796297        0.658521094890511        0        
C1        C        0.25        0.796297        0.658521094890511        0        
C1        C        0.3125        0.796297        0.658521094890511        0        
C1        C        0.375        0.796297        0.658521094890511        0        
C1        C        0.4375        0.796297        0.658521094890511        0        
C1        C        0.5        0.796297        0.658521094890511        0        
C1        C        0.5625        0.796297        0.658521094890511        0        
C1        C        0.625        0.796297        0.658521094890511        0        
C1        C        0.6875        0.796297        0.658521094890511        0        
C1        C        0.75        0.796297        0.658521094890511        0        
C1        C        0.8125        0.796297        0.658521094890511        0        
C1        C        0.875        0.796297        0.658521094890511        0        
C1        C        0.9375        0.796297        0.658521094890511        0        
C2        C        0.03125        0.851852        0.658521094890511        0        
C2        C        0.09375        0.851852        0.658521094890511        0        
C2        C        0.15625        0.851852        0.658521094890511        0        
C2        C        0.21875        0.851852        0.658521094890511        0        
C2        C        0.28125        0.851852        0.658521094890511        0        
C2        C        0.34375        0.851852        0.658521094890511        0        
C2        C        0.40625        0.851852        0.658521094890511        0        
C2        C        0.46875        0.851852        0.658521094890511        0        
C2        C        0.53125        0.851852        0.658521094890511        0        
C2        C        0.59375        0.851852        0.658521094890511        0        
C2        C        0.65625        0.851852        0.658521094890511        0        
C2        C        0.71875        0.851852        0.658521094890511        0        
C2        C        0.78125        0.851852        0.658521094890511        0        
C2        C        0.84375        0.851852        0.658521094890511        0        
C2        C        0.9062500000000001        0.851852        0.658521094890511        0        
C2        C        0.9687500000000001        0.851852        0.658521094890511        0        
C_FG        C        0.0        0.87037        0.658521094890511        0.08        
C3        C        0.0625        0.87037        0.658521094890511        0        
C3        C        0.125        0.87037        0.658521094890511        0        
C3        C        0.1875        0.87037        0.658521094890511        0        
C_FG        C        0.25        0.87037        0.658521094890511        0.08        
C3        C        0.3125        0.87037        0.658521094890511        0        
C3        C        0.375        0.87037        0.658521094890511        0        
C3        C        0.4375        0.87037        0.658521094890511        0        
C3        C        0.5        0.87037        0.658521094890511        0        
C3        C        0.5625        0.87037        0.658521094890511        0        
C3        C        0.625        0.87037        0.658521094890511        0        
C3        C        0.6875        0.87037        0.658521094890511        0        
C_FG        C        0.75        0.87037        0.658521094890511        0.08        
C3        C        0.8125        0.87037        0.658521094890511        0        
C3        C        0.875        0.87037        0.658521094890511        0        
C3        C        0.9375        0.87037        0.658521094890511        0        
C4        C        0.03125        0.814814        0.658521094890511        0        
C4        C        0.09375        0.814814        0.658521094890511        0        
C4        C        0.15625        0.814814        0.658521094890511        0        
C4        C        0.21875        0.814814        0.658521094890511        0        
C4        C        0.28125        0.814814        0.658521094890511        0        
C4        C        0.34375        0.814814        0.658521094890511        0        
C4        C        0.40625        0.814814        0.658521094890511        0        
C4        C        0.46875        0.814814        0.658521094890511        0        
C4        C        0.53125        0.814814        0.658521094890511        0        
C4        C        0.59375        0.814814        0.658521094890511        0        
C4        C        0.65625        0.814814        0.658521094890511        0        
C4        C        0.71875        0.814814        0.658521094890511        0        
C4        C        0.78125        0.814814        0.658521094890511        0        
C4        C        0.84375        0.814814        0.658521094890511        0        
C4        C        0.9062500000000001        0.814814        0.658521094890511        0        
C4        C        0.9687500000000001        0.814814        0.658521094890511        0        
C1        C        0.0        0.907408        0.658521094890511        0        
C1        C        0.0625        0.907408        0.658521094890511        0        
C1        C        0.125        0.907408        0.658521094890511        0        
C1        C        0.1875        0.907408        0.658521094890511        0        
C1        C        0.25        0.907408        0.658521094890511        0        
C1        C        0.3125        0.907408        0.658521094890511        0        
C1        C        0.375        0.907408        0.658521094890511        0        
C1        C        0.4375        0.907408        0.658521094890511        0        
C1        C        0.5        0.907408        0.658521094890511        0        
C1        C        0.5625        0.907408        0.658521094890511        0        
C1        C        0.625        0.907408        0.658521094890511        0        
C1        C        0.6875        0.907408        0.658521094890511        0        
C1        C        0.75        0.907408        0.658521094890511        0        
C1        C        0.8125        0.907408        0.658521094890511        0        
C1        C        0.875        0.907408        0.658521094890511        0        
C1        C        0.9375        0.907408        0.658521094890511        0        
C2        C        0.03125        0.962963        0.658521094890511        0        
C2        C        0.09375        0.962963        0.658521094890511        0        
C2        C        0.15625        0.962963        0.658521094890511        0        
C2        C        0.21875        0.962963        0.658521094890511        0        
C2        C        0.28125        0.962963        0.658521094890511        0        
C2        C        0.34375        0.962963        0.658521094890511        0        
C2        C        0.40625        0.962963        0.658521094890511        0        
C2        C        0.46875        0.962963        0.658521094890511        0        
C2        C        0.53125        0.962963        0.658521094890511        0        
C2        C        0.59375        0.962963        0.658521094890511        0        
C2        C        0.65625        0.962963        0.658521094890511        0        
C2        C        0.71875        0.962963        0.658521094890511        0        
C2        C        0.78125        0.962963        0.658521094890511        0        
C2        C        0.84375        0.962963        0.658521094890511        0        
C2        C        0.9062500000000001        0.962963        0.658521094890511        0        
C2        C        0.9687500000000001        0.962963        0.658521094890511        0        
C3        C        0.0        0.9814809999999999        0.658521094890511        0        
C3        C        0.0625        0.9814809999999999        0.658521094890511        0        
C3        C        0.125        0.9814809999999999        0.658521094890511        0        
C3        C        0.1875        0.9814809999999999        0.658521094890511        0        
C3        C        0.25        0.9814809999999999        0.658521094890511        0        
C3        C        0.3125        0.9814809999999999        0.658521094890511        0        
C3        C        0.375        0.9814809999999999        0.658521094890511        0        
C3        C        0.4375        0.9814809999999999        0.658521094890511        0        
C3        C        0.5        0.9814809999999999        0.658521094890511        0        
C3        C        0.5625        0.9814809999999999        0.658521094890511        0        
C3        C        0.625        0.9814809999999999        0.658521094890511        0        
C3        C        0.6875        0.9814809999999999        0.658521094890511        0        
C3        C        0.75        0.9814809999999999        0.658521094890511        0        
C3        C        0.8125        0.9814809999999999        0.658521094890511        0        
C3        C        0.875        0.9814809999999999        0.658521094890511        0        
C3        C        0.9375        0.9814809999999999        0.658521094890511        0        
C4        C        0.03125        0.925925        0.658521094890511        0        
C4        C        0.09375        0.925925        0.658521094890511        0        
C4        C        0.15625        0.925925        0.658521094890511        0        
C4        C        0.21875        0.925925        0.658521094890511        0        
C4        C        0.28125        0.925925        0.658521094890511        0        
C4        C        0.34375        0.925925        0.658521094890511        0        
C4        C        0.40625        0.925925        0.658521094890511        0        
C4        C        0.46875        0.925925        0.658521094890511        0        
C4        C        0.53125        0.925925        0.658521094890511        0        
C4        C        0.59375        0.925925        0.658521094890511        0        
C4        C        0.65625        0.925925        0.658521094890511        0        
C4        C        0.71875        0.925925        0.658521094890511        0        
C4        C        0.78125        0.925925        0.658521094890511        0        
C4        C        0.84375        0.925925        0.658521094890511        0        
C4        C        0.9062500000000001        0.925925        0.658521094890511        0        
C4        C        0.9687500000000001        0.925925        0.658521094890511        0        
C_COOH        C        0.0        0.018519        0.05852109489051095        0.55        
C_COOH        C        0.0        0.203703        0.05852109489051095        0.55        
C_COOH        C        0.0        0.351852        0.05852109489051095        0.55        
C_COOH        C        0.0        0.537037        0.05852109489051095        0.55        
C_COOH        C        0.25        0.018519        0.05852109489051095        0.55        
C_COOH        C        0.25        0.203703        0.05852109489051095        0.55        
C_COOH        C        0.25        0.351852        0.05852109489051095        0.55        
C_COOH        C        0.25        0.537037        0.05852109489051095        0.55        
C_COOH        C        0.75        0.018519        0.05852109489051095        0.55        
C_COOH        C        0.75        0.203703        0.05852109489051095        0.55        
C_COOH        C        0.75        0.351852        0.05852109489051095        0.55        
C_COOH        C        0.75        0.537037        0.05852109489051095        0.55        
C_COOH        C        0.0        0.685186        0.05852109489051095        0.55        
C_COOH        C        0.25        0.685186        0.05852109489051095        0.55        
C_COOH        C        0.75        0.685186        0.05852109489051095        0.55        
C_COOH        C        0.0        0.87037        0.05852109489051095        0.55        
C_COOH        C        0.25        0.87037        0.05852109489051095        0.55        
C_COOH        C        0.75        0.87037        0.05852109489051095        0.55        
C_COOH        C        0.0        0.018519        0.76947        0.55        
C_COOH        C        0.0        0.203703        0.76947        0.55        
C_COOH        C        0.0        0.351852        0.76947        0.55        
C_COOH        C        0.0        0.537037        0.76947        0.55        
C_COOH        C        0.25        0.018519        0.76947        0.55        
C_COOH        C        0.25        0.203703        0.76947        0.55        
C_COOH        C        0.25        0.351852        0.76947        0.55        
C_COOH        C        0.25        0.537037        0.76947        0.55        
C_COOH        C        0.75        0.018519        0.76947        0.55        
C_COOH        C        0.75        0.203703        0.76947        0.55        
C_COOH        C        0.75        0.351852        0.76947        0.55        
C_COOH        C        0.75        0.537037        0.76947        0.55        
C_COOH        C        0.0        0.685186        0.76947        0.55        
C_COOH        C        0.25        0.685186        0.76947        0.55        
C_COOH        C        0.75        0.685186        0.76947        0.55        
C_COOH        C        0.0        0.87037        0.76947        0.55        
C_COOH        C        0.25        0.87037        0.76947        0.55        
C_COOH        C        0.75        0.87037        0.76947        0.55        
O1_COOH        O        -0.0177064659184138        0.041830518267397025        0.026764963503649628        -0.5        
O1_COOH        O        0.016651030665900124        0.22782029881209565        0.026764963503649628        -0.5        
O1_COOH        O        -0.01992053498616704        0.3731974078467886        0.026764963503649628        -0.5        
O1_COOH        O        0.01285047379337469        0.5634909489583653        0.026764963503649628        -0.5        
O1_COOH        O        0.27831165649064504        0.023911892614814353        0.026764963503649628        -0.5        
O1_COOH        O        0.2738775326191121        0.22022490912778542        0.026764963503649628        -0.5        
O1_COOH        O        0.2734269413038365        0.3690403007670665        0.026764963503649628        -0.5        
O1_COOH        O        0.24504327200311632        0.5661566782007753        0.026764963503649628        -0.5        
O1_COOH        O        0.7525505418683268        0.047963752982462        0.026764963503649628        -0.5        
O1_COOH        O        0.7227110095449902        0.21313750533859135        0.026764963503649628        -0.5        
O1_COOH        O        0.77877938578002        0.35282174905929237        0.026764963503649628        -0.5        
O1_COOH        O        0.7379400750582314        0.563880361611705        0.026764963503649628        -0.5        
O1_COOH        O        -0.005813491261732617        0.714138212690606        0.026764963503649628        -0.5        
O1_COOH        O        0.24055204739520344        0.7131104146045756        0.026764963503649628        -0.5        
O1_COOH        O        0.7440692671410264        0.7141131407270135        0.026764963503649628        -0.5        
O1_COOH        O        0.025979599070692874        0.883118330383392        0.026764963503649628        -0.5        
O1_COOH        O        0.2398326799323085        0.898026853703368        0.026764963503649628        -0.5        
O1_COOH        O        0.7787872160036018        0.8710521662349195        0.026764963503649628        -0.5        
O1_COOH        O        0.0285514507853235        0.022354710412713773        0.8012261313868613        -0.5        
O1_COOH        O        -0.027088477998241316        0.2137280244581906        0.8012261313868613        -0.5        
O1_COOH        O        -0.015458227305569455        0.37679211054451467        0.8012261313868613        -0.5        
O1_COOH        O        0.023846570356254624        0.5536059708821827        0.8012261313868613        -0.5        
O1_COOH        O        0.2632064371260614        0.044787536771220146        0.8012261313868613        -0.5        
O1_COOH        O        0.22157289349779627        0.2084125248390177        0.8012261313868613        -0.5        
O1_COOH        O        0.2569771686488874        0.38053202654523416        0.8012261313868613        -0.5        
O1_COOH        O        0.22131897107516502        0.5396631666915209        0.8012261313868613        -0.5        
O1_COOH        O        0.7775005174374522        0.027282308474436124        0.8012261313868613        -0.5        
O1_COOH        O        0.7647894174793939        0.22906694588318083        0.8012261313868613        -0.5        
O1_COOH        O        0.7402060319132584        0.3796504883807947        0.8012261313868613        -0.5        
O1_COOH        O        0.7589839132329658        0.5651223554593142        0.8012261313868613        -0.5        
O1_COOH        O        0.007929881268733636        0.7136038828730197        0.8012261313868613        -0.5        
O1_COOH        O        0.22672690941111404        0.7025931793639715        0.8012261313868613        -0.5        
O1_COOH        O        0.7691117779306642        0.7072969948617177        0.8012261313868613        -0.5        
O1_COOH        O        0.028582513605212898        0.873953607886604        0.8012261313868613        -0.5        
O1_COOH        O        0.2506461547914614        0.8999235015267937        0.8012261313868613        -0.5        
O1_COOH        O        0.7645503681874557        0.8958792444689135        0.8012261313868613        -0.5        
O2_COOH        O        0.017239849821194114        -0.004178192985078204        0.0        -0.58        
O2_COOH        O        -0.016212228310884286        0.18022126109573883        0.0        -0.58        
O2_COOH        O        0.019395571826798973        0.331069104794013        0.0        -0.58        
O2_COOH        O        -0.012511826998666063        0.5112801883741706        0.0        -0.58        
O2_COOH        O        0.22243443675677996        0.013268225553556702        0.0        -0.58        
O2_COOH        O        0.22675170876272568        0.18761649050483176        0.0        -0.58        
O2_COOH        O        0.22719042570612244        0.3351166601941283        0.0        -0.58        
O2_COOH        O        0.254826104015591        0.5086847087332941        0.0        -0.58        
O2_COOH        O        0.7475166722159449        -0.010149799396716478        0.0        -0.58        
O2_COOH        O        0.7765698473870563        0.19451712090227322        0.0        -0.58        
O2_COOH        O        0.7219790334739931        0.3509078066062715        0.0        -0.58        
O2_COOH        O        0.7617421113738313        0.5109010378597212        0.0        -0.58        
O2_COOH        O        0.005660289114208114        0.6569967610475647        0.0        -0.58        
O2_COOH        O        0.2591989719899477        0.6579974737098948        0.0        -0.58        
O2_COOH        O        0.7557744410595225        0.6570211722930976        0.0        -0.58        
O2_COOH        O        -0.025294962216475        0.857957624639873        0.0        -0.58        
O2_COOH        O        0.25989938205956326        0.8434419836149261        0.0        -0.58        
O2_COOH        O        0.7219714095992326        0.8697058107994393        0.0        -0.58        
O2_COOH        O        -0.027799038271341656        0.014784371544074913        0.827991094890511        -0.58        
O2_COOH        O        0.02637461900789272        0.19394216365302067        0.827991094890511        -0.58        
O2_COOH        O        0.01505085873589015        0.32756913280941785        0.827991094890511        -0.58        
O2_COOH        O        -0.023218144918734737        0.5209046689624713        0.827991094890511        -0.58        
O2_COOH        O        0.23714159032212245        -0.007057285580929738        0.827991094890511        -0.58        
O2_COOH        O        0.277677970816267        0.19911758463095033        0.827991094890511        -0.58        
O2_COOH        O        0.24320669973114892        0.32392777430832737        0.827991094890511        -0.58        
O2_COOH        O        0.27792520165569967        0.5344800403234695        0.827991094890511        -0.58        
O2_COOH        O        0.7232241999724088        0.009986629806410824        0.827991094890511        -0.58        
O2_COOH        O        0.7356003260355564        0.17900746674600412        0.827991094890511        -0.58        
O2_COOH        O        0.7595358689727802        0.32478608141696297        0.827991094890511        -0.58        
O2_COOH        O        0.741252838615192        0.5096917741076946        0.827991094890511        -0.58        
O2_COOH        O        -0.007720906182113784        0.6575170097438666        0.827991094890511        -0.58        
O2_COOH        O        0.27265977798597224        0.6682375496752304        0.827991094890511        -0.58        
O2_COOH        O        0.7313918721636024        0.6636576931899554        0.827991094890511        -0.58        
O2_COOH        O        -0.027829282496947348        0.8668808304464725        0.827991094890511        -0.58        
O2_COOH        O        0.2493708732382076        0.8415953178946057        0.827991094890511        -0.58        
O2_COOH        O        0.7358330756938939        0.8455329971942139        0.827991094890511        -0.58        
H_COOH        H        0.029342537168431364        -0.02011203424282538        0.042610218978102195        0.45        
H_COOH        H        -0.02759350671433329        0.1637366543691562        0.042610218978102195        0.45        
H_COOH        H        0.03301161513200523        0.3164791353072003        0.042610218978102195        0.45        
H_COOH        H        -0.02129535654666816        0.4931984393217008        0.042610218978102195        0.45        
H_COOH        H        0.2030829112537533        0.009582086630348595        0.042610218978102195        0.45        
H_COOH        H        0.21043098653367565        0.17632346899086015        0.042610218978102195        0.45        
H_COOH        H        0.21117769073072815        0.3233681480306847        0.042610218978102195        0.45        
H_COOH        H        0.25821411659178756        0.4887808858846227        0.042610218978102195        0.45        
H_COOH        H        0.7457733310579391        -0.030275816694881705        0.042610218978102195        0.45        
H_COOH        H        0.7952223622943512        0.1880684671215056        0.042610218978102195        0.45        
H_COOH        H        0.7023078066043281        0.3502449657139121        0.042610218978102195        0.45        
H_COOH        H        0.769985286588688        0.49255311826739634        0.042610218978102195        0.45        
H_COOH        H        0.00963391476377809        0.6372074038816764        0.042610218978102195        0.45        
H_COOH        H        0.2656568172185913        0.6389106349883211        0.042610218978102195        0.45        
H_COOH        H        0.7598282034456969        0.6372489522644528        0.042610218978102195        0.45        
H_COOH        H        -0.04305248460450772        0.8492439119464198        0.042610218978102195        0.45        
H_COOH        H        0.2668489278642172        0.8245380275729667        0.042610218978102195        0.45        
H_COOH        H        0.7022948306311699        0.8692395379306401        0.042610218978102195        0.45        
H_COOH        H        -0.047314467479913906        0.012162594612782244        0.7853808759124088        0.45        
H_COOH        H        0.04489008005109783        0.18708987945215647        0.7853808759124088        0.45        
H_COOH        H        0.0256168346276277        0.3105221194914245        0.7853808759124088        0.45        
H_COOH        H        -0.0395177038852425        0.5095794798944487        0.7853808759124088        0.45        
H_COOH        H        0.22811475344546206        -0.025012302074698966        0.7853808759124088        0.45        
H_COOH        H        0.29710840847491904        0.19589853985130268        0.7853808759124088        0.45        
H_COOH        H        0.23843767969544466        0.3043244612594788        0.7853808759124088        0.45        
H_COOH        H        0.29752919984900156        0.5326850082410847        0.7853808759124088        0.45        
H_COOH        H        0.7044271025749771        0.003996751132587007        0.7853808759124088        0.45        
H_COOH        H        0.7254914936674479        0.16167075436472944        0.7853808759124088        0.45        
H_COOH        H        0.7662302219955021        0.3057853155301527        0.7853808759124088        0.45        
H_COOH        H        0.7351121726282985        0.49049492942246486        0.7853808759124088        0.45        
H_COOH        H        -0.013141122397953302        0.6380928766013577        0.7853808759124088        0.45        
H_COOH        H        0.288567353235548        0.6563394300611782        0.7853808759124088        0.45        
H_COOH        H        0.7183286288258047        0.6485444312335167        0.7853808759124088        0.45        
H_COOH        H        -0.047365943700598524        0.8644313701178837        0.7853808759124088        0.45        
H_COOH        H        0.24892921483754143        0.8213949690139791        0.7853808759124088        0.45        
H_COOH        H        0.7258876378085828        0.8280969706209812        0.7853808759124088        0.45        
