data_graphite_ortho

_audit_creation_method RASPA-1.0
_audit_creation_date 2012-2-3
_audit_author_name 'David Dubbeldam'

_cell_length_a    39.36    
_cell_length_b    38.34    
_cell_length_c    15.6    
_cell_angle_alpha 90
_cell_angle_beta  90
_cell_angle_gamma 90
_cell_volume      23541.37      

_symmetry_cell_setting          triclinic
_symmetry_space_group_name_Hall 'P 1'
_symmetry_space_group_name_H-M  'P 1'
_symmetry_Int_Tables_number     1

_symmetry_equiv_pos_as_xyz 'x,y,z'

loop_
_atom_site_label
_atom_site_type_symbol
_atom_site_fract_x
_atom_site_fract_y
_atom_site_fract_z
_atom_site_charge
C_FG        C        0.0        0.018519        0.11341019230769231        0.2        
C2        C        0.03125        0.074075        0.11341019230769231        0        
C3        C        0.0        0.092592        0.11341019230769231        0        
C4        C        0.03125        0.037037        0.11341019230769231        0        
C1        C        0.0        0.12963        0.11341019230769231        0        
C2        C        0.03125        0.185185        0.11341019230769231        0        
C3        C        0.0        0.203703        0.11341019230769231        0        
C4        C        0.03125        0.148148        0.11341019230769231        0        
C1        C        0.0        0.24074099999999998        0.11341019230769231        0        
C2        C        0.03125        0.296297        0.11341019230769231        0        
C_FG        C        0.0        0.314815        0.11341019230769231        0.2        
C4        C        0.03125        0.259259        0.11341019230769231        0        
C1        C        0.0        0.351852        0.11341019230769231        0        
C2        C        0.03125        0.407408        0.11341019230769231        0        
C3        C        0.0        0.42592500000000005        0.11341019230769231        0        
C4        C        0.03125        0.37037        0.11341019230769231        0        
C1        C        0.0        0.46296300000000007        0.11341019230769231        0        
C2        C        0.03125        0.518519        0.11341019230769231        0        
C3        C        0.0        0.537037        0.11341019230769231        0        
C4        C        0.03125        0.481481        0.11341019230769231        0        
C_FG        C        0.0        0.574075        0.11341019230769231        0.2        
C2        C        0.03125        0.62963        0.11341019230769231        0        
C3        C        0.0        0.648148        0.11341019230769231        0        
C4        C        0.03125        0.592592        0.11341019230769231        0        
C1        C        0.0625        0.018519        0.11341019230769231        0        
C2        C        0.09375        0.074075        0.11341019230769231        0        
C3        C        0.0625        0.092592        0.11341019230769231        0        
C4        C        0.09375        0.037037        0.11341019230769231        0        
C1        C        0.0625        0.12963        0.11341019230769231        0        
C2        C        0.09375        0.185185        0.11341019230769231        0        
C3        C        0.0625        0.203703        0.11341019230769231        0        
C4        C        0.09375        0.148148        0.11341019230769231        0        
C1        C        0.0625        0.24074099999999998        0.11341019230769231        0        
C2        C        0.09375        0.296297        0.11341019230769231        0        
C3        C        0.0625        0.314815        0.11341019230769231        0        
C4        C        0.09375        0.259259        0.11341019230769231        0        
C1        C        0.0625        0.351852        0.11341019230769231        0        
C2        C        0.09375        0.407408        0.11341019230769231        0        
C3        C        0.0625        0.42592500000000005        0.11341019230769231        0        
C4        C        0.09375        0.37037        0.11341019230769231        0        
C1        C        0.0625        0.46296300000000007        0.11341019230769231        0        
C2        C        0.09375        0.518519        0.11341019230769231        0        
C3        C        0.0625        0.537037        0.11341019230769231        0        
C4        C        0.09375        0.481481        0.11341019230769231        0        
C1        C        0.0625        0.574075        0.11341019230769231        0        
C2        C        0.09375        0.62963        0.11341019230769231        0        
C3        C        0.0625        0.648148        0.11341019230769231        0        
C4        C        0.09375        0.592592        0.11341019230769231        0        
C1        C        0.125        0.018519        0.11341019230769231        0        
C2        C        0.15625        0.074075        0.11341019230769231        0        
C3        C        0.125        0.092592        0.11341019230769231        0        
C4        C        0.15625        0.037037        0.11341019230769231        0        
C1        C        0.125        0.12963        0.11341019230769231        0        
C2        C        0.15625        0.185185        0.11341019230769231        0        
C3        C        0.125        0.203703        0.11341019230769231        0        
C4        C        0.15625        0.148148        0.11341019230769231        0        
C1        C        0.125        0.24074099999999998        0.11341019230769231        0        
C2        C        0.15625        0.296297        0.11341019230769231        0        
C3        C        0.125        0.314815        0.11341019230769231        0        
C4        C        0.15625        0.259259        0.11341019230769231        0        
C1        C        0.125        0.351852        0.11341019230769231        0        
C2        C        0.15625        0.407408        0.11341019230769231        0        
C3        C        0.125        0.42592500000000005        0.11341019230769231        0        
C4        C        0.15625        0.37037        0.11341019230769231        0        
C1        C        0.125        0.46296300000000007        0.11341019230769231        0        
C2        C        0.15625        0.518519        0.11341019230769231        0        
C3        C        0.125        0.537037        0.11341019230769231        0        
C4        C        0.15625        0.481481        0.11341019230769231        0        
C1        C        0.125        0.574075        0.11341019230769231        0        
C2        C        0.15625        0.62963        0.11341019230769231        0        
C3        C        0.125        0.648148        0.11341019230769231        0        
C4        C        0.15625        0.592592        0.11341019230769231        0        
C1        C        0.1875        0.018519        0.11341019230769231        0        
C2        C        0.21875        0.074075        0.11341019230769231        0        
C3        C        0.1875        0.092592        0.11341019230769231        0        
C4        C        0.21875        0.037037        0.11341019230769231        0        
C1        C        0.1875        0.12963        0.11341019230769231        0        
C2        C        0.21875        0.185185        0.11341019230769231        0        
C3        C        0.1875        0.203703        0.11341019230769231        0        
C4        C        0.21875        0.148148        0.11341019230769231        0        
C1        C        0.1875        0.24074099999999998        0.11341019230769231        0        
C2        C        0.21875        0.296297        0.11341019230769231        0        
C3        C        0.1875        0.314815        0.11341019230769231        0        
C4        C        0.21875        0.259259        0.11341019230769231        0        
C1        C        0.1875        0.351852        0.11341019230769231        0        
C2        C        0.21875        0.407408        0.11341019230769231        0        
C3        C        0.1875        0.42592500000000005        0.11341019230769231        0        
C4        C        0.21875        0.37037        0.11341019230769231        0        
C1        C        0.1875        0.46296300000000007        0.11341019230769231        0        
C2        C        0.21875        0.518519        0.11341019230769231        0        
C3        C        0.1875        0.537037        0.11341019230769231        0        
C4        C        0.21875        0.481481        0.11341019230769231        0        
C1        C        0.1875        0.574075        0.11341019230769231        0        
C2        C        0.21875        0.62963        0.11341019230769231        0        
C3        C        0.1875        0.648148        0.11341019230769231        0        
C4        C        0.21875        0.592592        0.11341019230769231        0        
C_FG        C        0.25        0.018519        0.11341019230769231        0.2        
C2        C        0.28125        0.074075        0.11341019230769231        0        
C3        C        0.25        0.092592        0.11341019230769231        0        
C4        C        0.28125        0.037037        0.11341019230769231        0        
C1        C        0.25        0.12963        0.11341019230769231        0        
C2        C        0.28125        0.185185        0.11341019230769231        0        
C3        C        0.25        0.203703        0.11341019230769231        0        
C4        C        0.28125        0.148148        0.11341019230769231        0        
C1        C        0.25        0.24074099999999998        0.11341019230769231        0        
C2        C        0.28125        0.296297        0.11341019230769231        0        
C_FG        C        0.25        0.314815        0.11341019230769231        0.2        
C4        C        0.28125        0.259259        0.11341019230769231        0        
C1        C        0.25        0.351852        0.11341019230769231        0        
C2        C        0.28125        0.407408        0.11341019230769231        0        
C3        C        0.25        0.42592500000000005        0.11341019230769231        0        
C4        C        0.28125        0.37037        0.11341019230769231        0        
C1        C        0.25        0.46296300000000007        0.11341019230769231        0        
C2        C        0.28125        0.518519        0.11341019230769231        0        
C3        C        0.25        0.537037        0.11341019230769231        0        
C4        C        0.28125        0.481481        0.11341019230769231        0        
C_FG        C        0.25        0.574075        0.11341019230769231        0.2        
C2        C        0.28125        0.62963        0.11341019230769231        0        
C3        C        0.25        0.648148        0.11341019230769231        0        
C4        C        0.28125        0.592592        0.11341019230769231        0        
C1        C        0.3125        0.018519        0.11341019230769231        0        
C2        C        0.34375        0.074075        0.11341019230769231        0        
C3        C        0.3125        0.092592        0.11341019230769231        0        
C4        C        0.34375        0.037037        0.11341019230769231        0        
C1        C        0.3125        0.12963        0.11341019230769231        0        
C2        C        0.34375        0.185185        0.11341019230769231        0        
C3        C        0.3125        0.203703        0.11341019230769231        0        
C4        C        0.34375        0.148148        0.11341019230769231        0        
C1        C        0.3125        0.24074099999999998        0.11341019230769231        0        
C2        C        0.34375        0.296297        0.11341019230769231        0        
C3        C        0.3125        0.314815        0.11341019230769231        0        
C4        C        0.34375        0.259259        0.11341019230769231        0        
C1        C        0.3125        0.351852        0.11341019230769231        0        
C2        C        0.34375        0.407408        0.11341019230769231        0        
C3        C        0.3125        0.42592500000000005        0.11341019230769231        0        
C4        C        0.34375        0.37037        0.11341019230769231        0        
C1        C        0.3125        0.46296300000000007        0.11341019230769231        0        
C2        C        0.34375        0.518519        0.11341019230769231        0        
C3        C        0.3125        0.537037        0.11341019230769231        0        
C4        C        0.34375        0.481481        0.11341019230769231        0        
C1        C        0.3125        0.574075        0.11341019230769231        0        
C2        C        0.34375        0.62963        0.11341019230769231        0        
C3        C        0.3125        0.648148        0.11341019230769231        0        
C4        C        0.34375        0.592592        0.11341019230769231        0        
C1        C        0.375        0.018519        0.11341019230769231        0        
C2        C        0.40625        0.074075        0.11341019230769231        0        
C3        C        0.375        0.092592        0.11341019230769231        0        
C4        C        0.40625        0.037037        0.11341019230769231        0        
C1        C        0.375        0.12963        0.11341019230769231        0        
C2        C        0.40625        0.185185        0.11341019230769231        0        
C3        C        0.375        0.203703        0.11341019230769231        0        
C4        C        0.40625        0.148148        0.11341019230769231        0        
C1        C        0.375        0.24074099999999998        0.11341019230769231        0        
C2        C        0.40625        0.296297        0.11341019230769231        0        
C3        C        0.375        0.314815        0.11341019230769231        0        
C4        C        0.40625        0.259259        0.11341019230769231        0        
C1        C        0.375        0.351852        0.11341019230769231        0        
C2        C        0.40625        0.407408        0.11341019230769231        0        
C3        C        0.375        0.42592500000000005        0.11341019230769231        0        
C4        C        0.40625        0.37037        0.11341019230769231        0        
C1        C        0.375        0.46296300000000007        0.11341019230769231        0        
C2        C        0.40625        0.518519        0.11341019230769231        0        
C3        C        0.375        0.537037        0.11341019230769231        0        
C4        C        0.40625        0.481481        0.11341019230769231        0        
C1        C        0.375        0.574075        0.11341019230769231        0        
C2        C        0.40625        0.62963        0.11341019230769231        0        
C3        C        0.375        0.648148        0.11341019230769231        0        
C4        C        0.40625        0.592592        0.11341019230769231        0        
C1        C        0.4375        0.018519        0.11341019230769231        0        
C2        C        0.46875        0.074075        0.11341019230769231        0        
C3        C        0.4375        0.092592        0.11341019230769231        0        
C4        C        0.46875        0.037037        0.11341019230769231        0        
C1        C        0.4375        0.12963        0.11341019230769231        0        
C2        C        0.46875        0.185185        0.11341019230769231        0        
C3        C        0.4375        0.203703        0.11341019230769231        0        
C4        C        0.46875        0.148148        0.11341019230769231        0        
C1        C        0.4375        0.24074099999999998        0.11341019230769231        0        
C2        C        0.46875        0.296297        0.11341019230769231        0        
C3        C        0.4375        0.314815        0.11341019230769231        0        
C4        C        0.46875        0.259259        0.11341019230769231        0        
C1        C        0.4375        0.351852        0.11341019230769231        0        
C2        C        0.46875        0.407408        0.11341019230769231        0        
C3        C        0.4375        0.42592500000000005        0.11341019230769231        0        
C4        C        0.46875        0.37037        0.11341019230769231        0        
C1        C        0.4375        0.46296300000000007        0.11341019230769231        0        
C2        C        0.46875        0.518519        0.11341019230769231        0        
C3        C        0.4375        0.537037        0.11341019230769231        0        
C4        C        0.46875        0.481481        0.11341019230769231        0        
C1        C        0.4375        0.574075        0.11341019230769231        0        
C2        C        0.46875        0.62963        0.11341019230769231        0        
C3        C        0.4375        0.648148        0.11341019230769231        0        
C4        C        0.46875        0.592592        0.11341019230769231        0        
C_FG        C        0.5        0.018519        0.11341019230769231        0.2        
C2        C        0.53125        0.074075        0.11341019230769231        0        
C3        C        0.5        0.092592        0.11341019230769231        0        
C4        C        0.53125        0.037037        0.11341019230769231        0        
C1        C        0.5        0.12963        0.11341019230769231        0        
C2        C        0.53125        0.185185        0.11341019230769231        0        
C3        C        0.5        0.203703        0.11341019230769231        0        
C4        C        0.53125        0.148148        0.11341019230769231        0        
C1        C        0.5        0.24074099999999998        0.11341019230769231        0        
C2        C        0.53125        0.296297        0.11341019230769231        0        
C_FG        C        0.5        0.314815        0.11341019230769231        0.2        
C4        C        0.53125        0.259259        0.11341019230769231        0        
C1        C        0.5        0.351852        0.11341019230769231        0        
C2        C        0.53125        0.407408        0.11341019230769231        0        
C3        C        0.5        0.42592500000000005        0.11341019230769231        0        
C4        C        0.53125        0.37037        0.11341019230769231        0        
C1        C        0.5        0.46296300000000007        0.11341019230769231        0        
C2        C        0.53125        0.518519        0.11341019230769231        0        
C3        C        0.5        0.537037        0.11341019230769231        0        
C4        C        0.53125        0.481481        0.11341019230769231        0        
C_FG        C        0.5        0.574075        0.11341019230769231        0.2        
C2        C        0.53125        0.62963        0.11341019230769231        0        
C3        C        0.5        0.648148        0.11341019230769231        0        
C4        C        0.53125        0.592592        0.11341019230769231        0        
C1        C        0.5625        0.018519        0.11341019230769231        0        
C2        C        0.59375        0.074075        0.11341019230769231        0        
C3        C        0.5625        0.092592        0.11341019230769231        0        
C4        C        0.59375        0.037037        0.11341019230769231        0        
C1        C        0.5625        0.12963        0.11341019230769231        0        
C2        C        0.59375        0.185185        0.11341019230769231        0        
C3        C        0.5625        0.203703        0.11341019230769231        0        
C4        C        0.59375        0.148148        0.11341019230769231        0        
C1        C        0.5625        0.24074099999999998        0.11341019230769231        0        
C2        C        0.59375        0.296297        0.11341019230769231        0        
C3        C        0.5625        0.314815        0.11341019230769231        0        
C4        C        0.59375        0.259259        0.11341019230769231        0        
C1        C        0.5625        0.351852        0.11341019230769231        0        
C2        C        0.59375        0.407408        0.11341019230769231        0        
C3        C        0.5625        0.42592500000000005        0.11341019230769231        0        
C4        C        0.59375        0.37037        0.11341019230769231        0        
C1        C        0.5625        0.46296300000000007        0.11341019230769231        0        
C2        C        0.59375        0.518519        0.11341019230769231        0        
C3        C        0.5625        0.537037        0.11341019230769231        0        
C4        C        0.59375        0.481481        0.11341019230769231        0        
C1        C        0.5625        0.574075        0.11341019230769231        0        
C2        C        0.59375        0.62963        0.11341019230769231        0        
C3        C        0.5625        0.648148        0.11341019230769231        0        
C4        C        0.59375        0.592592        0.11341019230769231        0        
C1        C        0.625        0.018519        0.11341019230769231        0        
C2        C        0.65625        0.074075        0.11341019230769231        0        
C3        C        0.625        0.092592        0.11341019230769231        0        
C4        C        0.65625        0.037037        0.11341019230769231        0        
C1        C        0.625        0.12963        0.11341019230769231        0        
C2        C        0.65625        0.185185        0.11341019230769231        0        
C3        C        0.625        0.203703        0.11341019230769231        0        
C4        C        0.65625        0.148148        0.11341019230769231        0        
C1        C        0.625        0.24074099999999998        0.11341019230769231        0        
C2        C        0.65625        0.296297        0.11341019230769231        0        
C3        C        0.625        0.314815        0.11341019230769231        0        
C4        C        0.65625        0.259259        0.11341019230769231        0        
C1        C        0.625        0.351852        0.11341019230769231        0        
C2        C        0.65625        0.407408        0.11341019230769231        0        
C3        C        0.625        0.42592500000000005        0.11341019230769231        0        
C4        C        0.65625        0.37037        0.11341019230769231        0        
C1        C        0.625        0.46296300000000007        0.11341019230769231        0        
C2        C        0.65625        0.518519        0.11341019230769231        0        
C3        C        0.625        0.537037        0.11341019230769231        0        
C4        C        0.65625        0.481481        0.11341019230769231        0        
C1        C        0.625        0.574075        0.11341019230769231        0        
C2        C        0.65625        0.62963        0.11341019230769231        0        
C3        C        0.625        0.648148        0.11341019230769231        0        
C4        C        0.65625        0.592592        0.11341019230769231        0        
C1        C        0.6875        0.018519        0.11341019230769231        0        
C2        C        0.71875        0.074075        0.11341019230769231        0        
C3        C        0.6875        0.092592        0.11341019230769231        0        
C4        C        0.71875        0.037037        0.11341019230769231        0        
C1        C        0.6875        0.12963        0.11341019230769231        0        
C2        C        0.71875        0.185185        0.11341019230769231        0        
C3        C        0.6875        0.203703        0.11341019230769231        0        
C4        C        0.71875        0.148148        0.11341019230769231        0        
C1        C        0.6875        0.24074099999999998        0.11341019230769231        0        
C2        C        0.71875        0.296297        0.11341019230769231        0        
C3        C        0.6875        0.314815        0.11341019230769231        0        
C4        C        0.71875        0.259259        0.11341019230769231        0        
C1        C        0.6875        0.351852        0.11341019230769231        0        
C2        C        0.71875        0.407408        0.11341019230769231        0        
C3        C        0.6875        0.42592500000000005        0.11341019230769231        0        
C4        C        0.71875        0.37037        0.11341019230769231        0        
C1        C        0.6875        0.46296300000000007        0.11341019230769231        0        
C2        C        0.71875        0.518519        0.11341019230769231        0        
C3        C        0.6875        0.537037        0.11341019230769231        0        
C4        C        0.71875        0.481481        0.11341019230769231        0        
C1        C        0.6875        0.574075        0.11341019230769231        0        
C2        C        0.71875        0.62963        0.11341019230769231        0        
C3        C        0.6875        0.648148        0.11341019230769231        0        
C4        C        0.71875        0.592592        0.11341019230769231        0        
C_FG        C        0.75        0.018519        0.11341019230769231        0.2        
C2        C        0.78125        0.074075        0.11341019230769231        0        
C3        C        0.75        0.092592        0.11341019230769231        0        
C4        C        0.78125        0.037037        0.11341019230769231        0        
C1        C        0.75        0.12963        0.11341019230769231        0        
C2        C        0.78125        0.185185        0.11341019230769231        0        
C3        C        0.75        0.203703        0.11341019230769231        0        
C4        C        0.78125        0.148148        0.11341019230769231        0        
C1        C        0.75        0.24074099999999998        0.11341019230769231        0        
C2        C        0.78125        0.296297        0.11341019230769231        0        
C_FG        C        0.75        0.314815        0.11341019230769231        0.2        
C4        C        0.78125        0.259259        0.11341019230769231        0        
C1        C        0.75        0.351852        0.11341019230769231        0        
C2        C        0.78125        0.407408        0.11341019230769231        0        
C3        C        0.75        0.42592500000000005        0.11341019230769231        0        
C4        C        0.78125        0.37037        0.11341019230769231        0        
C1        C        0.75        0.46296300000000007        0.11341019230769231        0        
C2        C        0.78125        0.518519        0.11341019230769231        0        
C3        C        0.75        0.537037        0.11341019230769231        0        
C4        C        0.78125        0.481481        0.11341019230769231        0        
C_FG        C        0.75        0.574075        0.11341019230769231        0.2        
C2        C        0.78125        0.62963        0.11341019230769231        0        
C3        C        0.75        0.648148        0.11341019230769231        0        
C4        C        0.78125        0.592592        0.11341019230769231        0        
C1        C        0.8125        0.018519        0.11341019230769231        0        
C2        C        0.84375        0.074075        0.11341019230769231        0        
C3        C        0.8125        0.092592        0.11341019230769231        0        
C4        C        0.84375        0.037037        0.11341019230769231        0        
C1        C        0.8125        0.12963        0.11341019230769231        0        
C2        C        0.84375        0.185185        0.11341019230769231        0        
C3        C        0.8125        0.203703        0.11341019230769231        0        
C4        C        0.84375        0.148148        0.11341019230769231        0        
C1        C        0.8125        0.24074099999999998        0.11341019230769231        0        
C2        C        0.84375        0.296297        0.11341019230769231        0        
C3        C        0.8125        0.314815        0.11341019230769231        0        
C4        C        0.84375        0.259259        0.11341019230769231        0        
C1        C        0.8125        0.351852        0.11341019230769231        0        
C2        C        0.84375        0.407408        0.11341019230769231        0        
C3        C        0.8125        0.42592500000000005        0.11341019230769231        0        
C4        C        0.84375        0.37037        0.11341019230769231        0        
C1        C        0.8125        0.46296300000000007        0.11341019230769231        0        
C2        C        0.84375        0.518519        0.11341019230769231        0        
C3        C        0.8125        0.537037        0.11341019230769231        0        
C4        C        0.84375        0.481481        0.11341019230769231        0        
C1        C        0.8125        0.574075        0.11341019230769231        0        
C2        C        0.84375        0.62963        0.11341019230769231        0        
C3        C        0.8125        0.648148        0.11341019230769231        0        
C4        C        0.84375        0.592592        0.11341019230769231        0        
C1        C        0.875        0.018519        0.11341019230769231        0        
C2        C        0.9062500000000001        0.074075        0.11341019230769231        0        
C3        C        0.875        0.092592        0.11341019230769231        0        
C4        C        0.9062500000000001        0.037037        0.11341019230769231        0        
C1        C        0.875        0.12963        0.11341019230769231        0        
C2        C        0.9062500000000001        0.185185        0.11341019230769231        0        
C3        C        0.875        0.203703        0.11341019230769231        0        
C4        C        0.9062500000000001        0.148148        0.11341019230769231        0        
C1        C        0.875        0.24074099999999998        0.11341019230769231        0        
C2        C        0.9062500000000001        0.296297        0.11341019230769231        0        
C3        C        0.875        0.314815        0.11341019230769231        0        
C4        C        0.9062500000000001        0.259259        0.11341019230769231        0        
C1        C        0.875        0.351852        0.11341019230769231        0        
C2        C        0.9062500000000001        0.407408        0.11341019230769231        0        
C3        C        0.875        0.42592500000000005        0.11341019230769231        0        
C4        C        0.9062500000000001        0.37037        0.11341019230769231        0        
C1        C        0.875        0.46296300000000007        0.11341019230769231        0        
C2        C        0.9062500000000001        0.518519        0.11341019230769231        0        
C3        C        0.875        0.537037        0.11341019230769231        0        
C4        C        0.9062500000000001        0.481481        0.11341019230769231        0        
C1        C        0.875        0.574075        0.11341019230769231        0        
C2        C        0.9062500000000001        0.62963        0.11341019230769231        0        
C3        C        0.875        0.648148        0.11341019230769231        0        
C4        C        0.9062500000000001        0.592592        0.11341019230769231        0        
C1        C        0.9375        0.018519        0.11341019230769231        0        
C2        C        0.9687500000000001        0.074075        0.11341019230769231        0        
C3        C        0.9375        0.092592        0.11341019230769231        0        
C4        C        0.9687500000000001        0.037037        0.11341019230769231        0        
C1        C        0.9375        0.12963        0.11341019230769231        0        
C2        C        0.9687500000000001        0.185185        0.11341019230769231        0        
C3        C        0.9375        0.203703        0.11341019230769231        0        
C4        C        0.9687500000000001        0.148148        0.11341019230769231        0        
C1        C        0.9375        0.24074099999999998        0.11341019230769231        0        
C2        C        0.9687500000000001        0.296297        0.11341019230769231        0        
C3        C        0.9375        0.314815        0.11341019230769231        0        
C4        C        0.9687500000000001        0.259259        0.11341019230769231        0        
C1        C        0.9375        0.351852        0.11341019230769231        0        
C2        C        0.9687500000000001        0.407408        0.11341019230769231        0        
C3        C        0.9375        0.42592500000000005        0.11341019230769231        0        
C4        C        0.9687500000000001        0.37037        0.11341019230769231        0        
C1        C        0.9375        0.46296300000000007        0.11341019230769231        0        
C2        C        0.9687500000000001        0.518519        0.11341019230769231        0        
C3        C        0.9375        0.537037        0.11341019230769231        0        
C4        C        0.9687500000000001        0.481481        0.11341019230769231        0        
C1        C        0.9375        0.574075        0.11341019230769231        0        
C2        C        0.9687500000000001        0.62963        0.11341019230769231        0        
C3        C        0.9375        0.648148        0.11341019230769231        0        
C4        C        0.9687500000000001        0.592592        0.11341019230769231        0        
C1        C        0.0        0.685186        0.11341019230769231        0        
C1        C        0.0625        0.685186        0.11341019230769231        0        
C1        C        0.125        0.685186        0.11341019230769231        0        
C1        C        0.1875        0.685186        0.11341019230769231        0        
C1        C        0.25        0.685186        0.11341019230769231        0        
C1        C        0.3125        0.685186        0.11341019230769231        0        
C1        C        0.375        0.685186        0.11341019230769231        0        
C1        C        0.4375        0.685186        0.11341019230769231        0        
C1        C        0.5        0.685186        0.11341019230769231        0        
C1        C        0.5625        0.685186        0.11341019230769231        0        
C1        C        0.625        0.685186        0.11341019230769231        0        
C1        C        0.6875        0.685186        0.11341019230769231        0        
C1        C        0.75        0.685186        0.11341019230769231        0        
C1        C        0.8125        0.685186        0.11341019230769231        0        
C1        C        0.875        0.685186        0.11341019230769231        0        
C1        C        0.9375        0.685186        0.11341019230769231        0        
C2        C        0.03125        0.740741        0.11341019230769231        0        
C2        C        0.09375        0.740741        0.11341019230769231        0        
C2        C        0.15625        0.740741        0.11341019230769231        0        
C2        C        0.21875        0.740741        0.11341019230769231        0        
C2        C        0.28125        0.740741        0.11341019230769231        0        
C2        C        0.34375        0.740741        0.11341019230769231        0        
C2        C        0.40625        0.740741        0.11341019230769231        0        
C2        C        0.46875        0.740741        0.11341019230769231        0        
C2        C        0.53125        0.740741        0.11341019230769231        0        
C2        C        0.59375        0.740741        0.11341019230769231        0        
C2        C        0.65625        0.740741        0.11341019230769231        0        
C2        C        0.71875        0.740741        0.11341019230769231        0        
C2        C        0.78125        0.740741        0.11341019230769231        0        
C2        C        0.84375        0.740741        0.11341019230769231        0        
C2        C        0.9062500000000001        0.740741        0.11341019230769231        0        
C2        C        0.9687500000000001        0.740741        0.11341019230769231        0        
C3        C        0.0        0.759259        0.11341019230769231        0        
C3        C        0.0625        0.759259        0.11341019230769231        0        
C3        C        0.125        0.759259        0.11341019230769231        0        
C3        C        0.1875        0.759259        0.11341019230769231        0        
C3        C        0.25        0.759259        0.11341019230769231        0        
C3        C        0.3125        0.759259        0.11341019230769231        0        
C3        C        0.375        0.759259        0.11341019230769231        0        
C3        C        0.4375        0.759259        0.11341019230769231        0        
C3        C        0.5        0.759259        0.11341019230769231        0        
C3        C        0.5625        0.759259        0.11341019230769231        0        
C3        C        0.625        0.759259        0.11341019230769231        0        
C3        C        0.6875        0.759259        0.11341019230769231        0        
C3        C        0.75        0.759259        0.11341019230769231        0        
C3        C        0.8125        0.759259        0.11341019230769231        0        
C3        C        0.875        0.759259        0.11341019230769231        0        
C3        C        0.9375        0.759259        0.11341019230769231        0        
C4        C        0.03125        0.703703        0.11341019230769231        0        
C4        C        0.09375        0.703703        0.11341019230769231        0        
C4        C        0.15625        0.703703        0.11341019230769231        0        
C4        C        0.21875        0.703703        0.11341019230769231        0        
C4        C        0.28125        0.703703        0.11341019230769231        0        
C4        C        0.34375        0.703703        0.11341019230769231        0        
C4        C        0.40625        0.703703        0.11341019230769231        0        
C4        C        0.46875        0.703703        0.11341019230769231        0        
C4        C        0.53125        0.703703        0.11341019230769231        0        
C4        C        0.59375        0.703703        0.11341019230769231        0        
C4        C        0.65625        0.703703        0.11341019230769231        0        
C4        C        0.71875        0.703703        0.11341019230769231        0        
C4        C        0.78125        0.703703        0.11341019230769231        0        
C4        C        0.84375        0.703703        0.11341019230769231        0        
C4        C        0.9062500000000001        0.703703        0.11341019230769231        0        
C4        C        0.9687500000000001        0.703703        0.11341019230769231        0        
C1        C        0.0        0.796297        0.11341019230769231        0        
C1        C        0.0625        0.796297        0.11341019230769231        0        
C1        C        0.125        0.796297        0.11341019230769231        0        
C1        C        0.1875        0.796297        0.11341019230769231        0        
C1        C        0.25        0.796297        0.11341019230769231        0        
C1        C        0.3125        0.796297        0.11341019230769231        0        
C1        C        0.375        0.796297        0.11341019230769231        0        
C1        C        0.4375        0.796297        0.11341019230769231        0        
C1        C        0.5        0.796297        0.11341019230769231        0        
C1        C        0.5625        0.796297        0.11341019230769231        0        
C1        C        0.625        0.796297        0.11341019230769231        0        
C1        C        0.6875        0.796297        0.11341019230769231        0        
C1        C        0.75        0.796297        0.11341019230769231        0        
C1        C        0.8125        0.796297        0.11341019230769231        0        
C1        C        0.875        0.796297        0.11341019230769231        0        
C1        C        0.9375        0.796297        0.11341019230769231        0        
C2        C        0.03125        0.851852        0.11341019230769231        0        
C2        C        0.09375        0.851852        0.11341019230769231        0        
C2        C        0.15625        0.851852        0.11341019230769231        0        
C2        C        0.21875        0.851852        0.11341019230769231        0        
C2        C        0.28125        0.851852        0.11341019230769231        0        
C2        C        0.34375        0.851852        0.11341019230769231        0        
C2        C        0.40625        0.851852        0.11341019230769231        0        
C2        C        0.46875        0.851852        0.11341019230769231        0        
C2        C        0.53125        0.851852        0.11341019230769231        0        
C2        C        0.59375        0.851852        0.11341019230769231        0        
C2        C        0.65625        0.851852        0.11341019230769231        0        
C2        C        0.71875        0.851852        0.11341019230769231        0        
C2        C        0.78125        0.851852        0.11341019230769231        0        
C2        C        0.84375        0.851852        0.11341019230769231        0        
C2        C        0.9062500000000001        0.851852        0.11341019230769231        0        
C2        C        0.9687500000000001        0.851852        0.11341019230769231        0        
C_FG        C        0.0        0.87037        0.11341019230769231        0.2        
C3        C        0.0625        0.87037        0.11341019230769231        0        
C3        C        0.125        0.87037        0.11341019230769231        0        
C3        C        0.1875        0.87037        0.11341019230769231        0        
C_FG        C        0.25        0.87037        0.11341019230769231        0.2        
C3        C        0.3125        0.87037        0.11341019230769231        0        
C3        C        0.375        0.87037        0.11341019230769231        0        
C3        C        0.4375        0.87037        0.11341019230769231        0        
C_FG        C        0.5        0.87037        0.11341019230769231        0.2        
C3        C        0.5625        0.87037        0.11341019230769231        0        
C3        C        0.625        0.87037        0.11341019230769231        0        
C3        C        0.6875        0.87037        0.11341019230769231        0        
C_FG        C        0.75        0.87037        0.11341019230769231        0.2        
C3        C        0.8125        0.87037        0.11341019230769231        0        
C3        C        0.875        0.87037        0.11341019230769231        0        
C3        C        0.9375        0.87037        0.11341019230769231        0        
C4        C        0.03125        0.814814        0.11341019230769231        0        
C4        C        0.09375        0.814814        0.11341019230769231        0        
C4        C        0.15625        0.814814        0.11341019230769231        0        
C4        C        0.21875        0.814814        0.11341019230769231        0        
C4        C        0.28125        0.814814        0.11341019230769231        0        
C4        C        0.34375        0.814814        0.11341019230769231        0        
C4        C        0.40625        0.814814        0.11341019230769231        0        
C4        C        0.46875        0.814814        0.11341019230769231        0        
C4        C        0.53125        0.814814        0.11341019230769231        0        
C4        C        0.59375        0.814814        0.11341019230769231        0        
C4        C        0.65625        0.814814        0.11341019230769231        0        
C4        C        0.71875        0.814814        0.11341019230769231        0        
C4        C        0.78125        0.814814        0.11341019230769231        0        
C4        C        0.84375        0.814814        0.11341019230769231        0        
C4        C        0.9062500000000001        0.814814        0.11341019230769231        0        
C4        C        0.9687500000000001        0.814814        0.11341019230769231        0        
C1        C        0.0        0.907408        0.11341019230769231        0        
C1        C        0.0625        0.907408        0.11341019230769231        0        
C1        C        0.125        0.907408        0.11341019230769231        0        
C1        C        0.1875        0.907408        0.11341019230769231        0        
C1        C        0.25        0.907408        0.11341019230769231        0        
C1        C        0.3125        0.907408        0.11341019230769231        0        
C1        C        0.375        0.907408        0.11341019230769231        0        
C1        C        0.4375        0.907408        0.11341019230769231        0        
C1        C        0.5        0.907408        0.11341019230769231        0        
C1        C        0.5625        0.907408        0.11341019230769231        0        
C1        C        0.625        0.907408        0.11341019230769231        0        
C1        C        0.6875        0.907408        0.11341019230769231        0        
C1        C        0.75        0.907408        0.11341019230769231        0        
C1        C        0.8125        0.907408        0.11341019230769231        0        
C1        C        0.875        0.907408        0.11341019230769231        0        
C1        C        0.9375        0.907408        0.11341019230769231        0        
C2        C        0.03125        0.962963        0.11341019230769231        0        
C2        C        0.09375        0.962963        0.11341019230769231        0        
C2        C        0.15625        0.962963        0.11341019230769231        0        
C2        C        0.21875        0.962963        0.11341019230769231        0        
C2        C        0.28125        0.962963        0.11341019230769231        0        
C2        C        0.34375        0.962963        0.11341019230769231        0        
C2        C        0.40625        0.962963        0.11341019230769231        0        
C2        C        0.46875        0.962963        0.11341019230769231        0        
C2        C        0.53125        0.962963        0.11341019230769231        0        
C2        C        0.59375        0.962963        0.11341019230769231        0        
C2        C        0.65625        0.962963        0.11341019230769231        0        
C2        C        0.71875        0.962963        0.11341019230769231        0        
C2        C        0.78125        0.962963        0.11341019230769231        0        
C2        C        0.84375        0.962963        0.11341019230769231        0        
C2        C        0.9062500000000001        0.962963        0.11341019230769231        0        
C2        C        0.9687500000000001        0.962963        0.11341019230769231        0        
C3        C        0.0        0.9814809999999999        0.11341019230769231        0        
C3        C        0.0625        0.9814809999999999        0.11341019230769231        0        
C3        C        0.125        0.9814809999999999        0.11341019230769231        0        
C3        C        0.1875        0.9814809999999999        0.11341019230769231        0        
C3        C        0.25        0.9814809999999999        0.11341019230769231        0        
C3        C        0.3125        0.9814809999999999        0.11341019230769231        0        
C3        C        0.375        0.9814809999999999        0.11341019230769231        0        
C3        C        0.4375        0.9814809999999999        0.11341019230769231        0        
C3        C        0.5        0.9814809999999999        0.11341019230769231        0        
C3        C        0.5625        0.9814809999999999        0.11341019230769231        0        
C3        C        0.625        0.9814809999999999        0.11341019230769231        0        
C3        C        0.6875        0.9814809999999999        0.11341019230769231        0        
C3        C        0.75        0.9814809999999999        0.11341019230769231        0        
C3        C        0.8125        0.9814809999999999        0.11341019230769231        0        
C3        C        0.875        0.9814809999999999        0.11341019230769231        0        
C3        C        0.9375        0.9814809999999999        0.11341019230769231        0        
C4        C        0.03125        0.925925        0.11341019230769231        0        
C4        C        0.09375        0.925925        0.11341019230769231        0        
C4        C        0.15625        0.925925        0.11341019230769231        0        
C4        C        0.21875        0.925925        0.11341019230769231        0        
C4        C        0.28125        0.925925        0.11341019230769231        0        
C4        C        0.34375        0.925925        0.11341019230769231        0        
C4        C        0.40625        0.925925        0.11341019230769231        0        
C4        C        0.46875        0.925925        0.11341019230769231        0        
C4        C        0.53125        0.925925        0.11341019230769231        0        
C4        C        0.59375        0.925925        0.11341019230769231        0        
C4        C        0.65625        0.925925        0.11341019230769231        0        
C4        C        0.71875        0.925925        0.11341019230769231        0        
C4        C        0.78125        0.925925        0.11341019230769231        0        
C4        C        0.84375        0.925925        0.11341019230769231        0        
C4        C        0.9062500000000001        0.925925        0.11341019230769231        0        
C4        C        0.9687500000000001        0.925925        0.11341019230769231        0        
C1        C        0.0        0.018519        0.3281541923076923        0        
C2        C        0.03125        0.074075        0.3281541923076923        0        
C3        C        0.0        0.092592        0.3281541923076923        0        
C4        C        0.03125        0.037037        0.3281541923076923        0        
C1        C        0.0        0.12963        0.3281541923076923        0        
C2        C        0.03125        0.185185        0.3281541923076923        0        
C3        C        0.0        0.203703        0.3281541923076923        0        
C4        C        0.03125        0.148148        0.3281541923076923        0        
C1        C        0.0        0.24074099999999998        0.3281541923076923        0        
C2        C        0.03125        0.296297        0.3281541923076923        0        
C3        C        0.0        0.314815        0.3281541923076923        0        
C4        C        0.03125        0.259259        0.3281541923076923        0        
C1        C        0.0        0.351852        0.3281541923076923        0        
C2        C        0.03125        0.407408        0.3281541923076923        0        
C3        C        0.0        0.42592500000000005        0.3281541923076923        0        
C4        C        0.03125        0.37037        0.3281541923076923        0        
C1        C        0.0        0.46296300000000007        0.3281541923076923        0        
C2        C        0.03125        0.518519        0.3281541923076923        0        
C3        C        0.0        0.537037        0.3281541923076923        0        
C4        C        0.03125        0.481481        0.3281541923076923        0        
C1        C        0.0        0.574075        0.3281541923076923        0        
C2        C        0.03125        0.62963        0.3281541923076923        0        
C3        C        0.0        0.648148        0.3281541923076923        0        
C4        C        0.03125        0.592592        0.3281541923076923        0        
C1        C        0.0625        0.018519        0.3281541923076923        0        
C2        C        0.09375        0.074075        0.3281541923076923        0        
C3        C        0.0625        0.092592        0.3281541923076923        0        
C4        C        0.09375        0.037037        0.3281541923076923        0        
C1        C        0.0625        0.12963        0.3281541923076923        0        
C2        C        0.09375        0.185185        0.3281541923076923        0        
C3        C        0.0625        0.203703        0.3281541923076923        0        
C4        C        0.09375        0.148148        0.3281541923076923        0        
C1        C        0.0625        0.24074099999999998        0.3281541923076923        0        
C2        C        0.09375        0.296297        0.3281541923076923        0        
C3        C        0.0625        0.314815        0.3281541923076923        0        
C4        C        0.09375        0.259259        0.3281541923076923        0        
C1        C        0.0625        0.351852        0.3281541923076923        0        
C2        C        0.09375        0.407408        0.3281541923076923        0        
C3        C        0.0625        0.42592500000000005        0.3281541923076923        0        
C4        C        0.09375        0.37037        0.3281541923076923        0        
C1        C        0.0625        0.46296300000000007        0.3281541923076923        0        
C2        C        0.09375        0.518519        0.3281541923076923        0        
C3        C        0.0625        0.537037        0.3281541923076923        0        
C4        C        0.09375        0.481481        0.3281541923076923        0        
C1        C        0.0625        0.574075        0.3281541923076923        0        
C2        C        0.09375        0.62963        0.3281541923076923        0        
C3        C        0.0625        0.648148        0.3281541923076923        0        
C4        C        0.09375        0.592592        0.3281541923076923        0        
C1        C        0.125        0.018519        0.3281541923076923        0        
C2        C        0.15625        0.074075        0.3281541923076923        0        
C3        C        0.125        0.092592        0.3281541923076923        0        
C4        C        0.15625        0.037037        0.3281541923076923        0        
C1        C        0.125        0.12963        0.3281541923076923        0        
C2        C        0.15625        0.185185        0.3281541923076923        0        
C3        C        0.125        0.203703        0.3281541923076923        0        
C4        C        0.15625        0.148148        0.3281541923076923        0        
C1        C        0.125        0.24074099999999998        0.3281541923076923        0        
C2        C        0.15625        0.296297        0.3281541923076923        0        
C3        C        0.125        0.314815        0.3281541923076923        0        
C4        C        0.15625        0.259259        0.3281541923076923        0        
C1        C        0.125        0.351852        0.3281541923076923        0        
C2        C        0.15625        0.407408        0.3281541923076923        0        
C3        C        0.125        0.42592500000000005        0.3281541923076923        0        
C4        C        0.15625        0.37037        0.3281541923076923        0        
C1        C        0.125        0.46296300000000007        0.3281541923076923        0        
C2        C        0.15625        0.518519        0.3281541923076923        0        
C3        C        0.125        0.537037        0.3281541923076923        0        
C4        C        0.15625        0.481481        0.3281541923076923        0        
C1        C        0.125        0.574075        0.3281541923076923        0        
C2        C        0.15625        0.62963        0.3281541923076923        0        
C3        C        0.125        0.648148        0.3281541923076923        0        
C4        C        0.15625        0.592592        0.3281541923076923        0        
C1        C        0.1875        0.018519        0.3281541923076923        0        
C2        C        0.21875        0.074075        0.3281541923076923        0        
C3        C        0.1875        0.092592        0.3281541923076923        0        
C4        C        0.21875        0.037037        0.3281541923076923        0        
C1        C        0.1875        0.12963        0.3281541923076923        0        
C2        C        0.21875        0.185185        0.3281541923076923        0        
C3        C        0.1875        0.203703        0.3281541923076923        0        
C4        C        0.21875        0.148148        0.3281541923076923        0        
C1        C        0.1875        0.24074099999999998        0.3281541923076923        0        
C2        C        0.21875        0.296297        0.3281541923076923        0        
C3        C        0.1875        0.314815        0.3281541923076923        0        
C4        C        0.21875        0.259259        0.3281541923076923        0        
C1        C        0.1875        0.351852        0.3281541923076923        0        
C2        C        0.21875        0.407408        0.3281541923076923        0        
C3        C        0.1875        0.42592500000000005        0.3281541923076923        0        
C4        C        0.21875        0.37037        0.3281541923076923        0        
C1        C        0.1875        0.46296300000000007        0.3281541923076923        0        
C2        C        0.21875        0.518519        0.3281541923076923        0        
C3        C        0.1875        0.537037        0.3281541923076923        0        
C4        C        0.21875        0.481481        0.3281541923076923        0        
C1        C        0.1875        0.574075        0.3281541923076923        0        
C2        C        0.21875        0.62963        0.3281541923076923        0        
C3        C        0.1875        0.648148        0.3281541923076923        0        
C4        C        0.21875        0.592592        0.3281541923076923        0        
C1        C        0.25        0.018519        0.3281541923076923        0        
C2        C        0.28125        0.074075        0.3281541923076923        0        
C3        C        0.25        0.092592        0.3281541923076923        0        
C4        C        0.28125        0.037037        0.3281541923076923        0        
C1        C        0.25        0.12963        0.3281541923076923        0        
C2        C        0.28125        0.185185        0.3281541923076923        0        
C3        C        0.25        0.203703        0.3281541923076923        0        
C4        C        0.28125        0.148148        0.3281541923076923        0        
C1        C        0.25        0.24074099999999998        0.3281541923076923        0        
C2        C        0.28125        0.296297        0.3281541923076923        0        
C3        C        0.25        0.314815        0.3281541923076923        0        
C4        C        0.28125        0.259259        0.3281541923076923        0        
C1        C        0.25        0.351852        0.3281541923076923        0        
C2        C        0.28125        0.407408        0.3281541923076923        0        
C3        C        0.25        0.42592500000000005        0.3281541923076923        0        
C4        C        0.28125        0.37037        0.3281541923076923        0        
C1        C        0.25        0.46296300000000007        0.3281541923076923        0        
C2        C        0.28125        0.518519        0.3281541923076923        0        
C3        C        0.25        0.537037        0.3281541923076923        0        
C4        C        0.28125        0.481481        0.3281541923076923        0        
C1        C        0.25        0.574075        0.3281541923076923        0        
C2        C        0.28125        0.62963        0.3281541923076923        0        
C3        C        0.25        0.648148        0.3281541923076923        0        
C4        C        0.28125        0.592592        0.3281541923076923        0        
C1        C        0.3125        0.018519        0.3281541923076923        0        
C2        C        0.34375        0.074075        0.3281541923076923        0        
C3        C        0.3125        0.092592        0.3281541923076923        0        
C4        C        0.34375        0.037037        0.3281541923076923        0        
C1        C        0.3125        0.12963        0.3281541923076923        0        
C2        C        0.34375        0.185185        0.3281541923076923        0        
C3        C        0.3125        0.203703        0.3281541923076923        0        
C4        C        0.34375        0.148148        0.3281541923076923        0        
C1        C        0.3125        0.24074099999999998        0.3281541923076923        0        
C2        C        0.34375        0.296297        0.3281541923076923        0        
C3        C        0.3125        0.314815        0.3281541923076923        0        
C4        C        0.34375        0.259259        0.3281541923076923        0        
C1        C        0.3125        0.351852        0.3281541923076923        0        
C2        C        0.34375        0.407408        0.3281541923076923        0        
C3        C        0.3125        0.42592500000000005        0.3281541923076923        0        
C4        C        0.34375        0.37037        0.3281541923076923        0        
C1        C        0.3125        0.46296300000000007        0.3281541923076923        0        
C2        C        0.34375        0.518519        0.3281541923076923        0        
C3        C        0.3125        0.537037        0.3281541923076923        0        
C4        C        0.34375        0.481481        0.3281541923076923        0        
C1        C        0.3125        0.574075        0.3281541923076923        0        
C2        C        0.34375        0.62963        0.3281541923076923        0        
C3        C        0.3125        0.648148        0.3281541923076923        0        
C4        C        0.34375        0.592592        0.3281541923076923        0        
C1        C        0.375        0.018519        0.3281541923076923        0        
C2        C        0.40625        0.074075        0.3281541923076923        0        
C3        C        0.375        0.092592        0.3281541923076923        0        
C4        C        0.40625        0.037037        0.3281541923076923        0        
C1        C        0.375        0.12963        0.3281541923076923        0        
C2        C        0.40625        0.185185        0.3281541923076923        0        
C3        C        0.375        0.203703        0.3281541923076923        0        
C4        C        0.40625        0.148148        0.3281541923076923        0        
C1        C        0.375        0.24074099999999998        0.3281541923076923        0        
C2        C        0.40625        0.296297        0.3281541923076923        0        
C3        C        0.375        0.314815        0.3281541923076923        0        
C4        C        0.40625        0.259259        0.3281541923076923        0        
C1        C        0.375        0.351852        0.3281541923076923        0        
C2        C        0.40625        0.407408        0.3281541923076923        0        
C3        C        0.375        0.42592500000000005        0.3281541923076923        0        
C4        C        0.40625        0.37037        0.3281541923076923        0        
C1        C        0.375        0.46296300000000007        0.3281541923076923        0        
C2        C        0.40625        0.518519        0.3281541923076923        0        
C3        C        0.375        0.537037        0.3281541923076923        0        
C4        C        0.40625        0.481481        0.3281541923076923        0        
C1        C        0.375        0.574075        0.3281541923076923        0        
C2        C        0.40625        0.62963        0.3281541923076923        0        
C3        C        0.375        0.648148        0.3281541923076923        0        
C4        C        0.40625        0.592592        0.3281541923076923        0        
C1        C        0.4375        0.018519        0.3281541923076923        0        
C2        C        0.46875        0.074075        0.3281541923076923        0        
C3        C        0.4375        0.092592        0.3281541923076923        0        
C4        C        0.46875        0.037037        0.3281541923076923        0        
C1        C        0.4375        0.12963        0.3281541923076923        0        
C2        C        0.46875        0.185185        0.3281541923076923        0        
C3        C        0.4375        0.203703        0.3281541923076923        0        
C4        C        0.46875        0.148148        0.3281541923076923        0        
C1        C        0.4375        0.24074099999999998        0.3281541923076923        0        
C2        C        0.46875        0.296297        0.3281541923076923        0        
C3        C        0.4375        0.314815        0.3281541923076923        0        
C4        C        0.46875        0.259259        0.3281541923076923        0        
C1        C        0.4375        0.351852        0.3281541923076923        0        
C2        C        0.46875        0.407408        0.3281541923076923        0        
C3        C        0.4375        0.42592500000000005        0.3281541923076923        0        
C4        C        0.46875        0.37037        0.3281541923076923        0        
C1        C        0.4375        0.46296300000000007        0.3281541923076923        0        
C2        C        0.46875        0.518519        0.3281541923076923        0        
C3        C        0.4375        0.537037        0.3281541923076923        0        
C4        C        0.46875        0.481481        0.3281541923076923        0        
C1        C        0.4375        0.574075        0.3281541923076923        0        
C2        C        0.46875        0.62963        0.3281541923076923        0        
C3        C        0.4375        0.648148        0.3281541923076923        0        
C4        C        0.46875        0.592592        0.3281541923076923        0        
C1        C        0.5        0.018519        0.3281541923076923        0        
C2        C        0.53125        0.074075        0.3281541923076923        0        
C3        C        0.5        0.092592        0.3281541923076923        0        
C4        C        0.53125        0.037037        0.3281541923076923        0        
C1        C        0.5        0.12963        0.3281541923076923        0        
C2        C        0.53125        0.185185        0.3281541923076923        0        
C3        C        0.5        0.203703        0.3281541923076923        0        
C4        C        0.53125        0.148148        0.3281541923076923        0        
C1        C        0.5        0.24074099999999998        0.3281541923076923        0        
C2        C        0.53125        0.296297        0.3281541923076923        0        
C3        C        0.5        0.314815        0.3281541923076923        0        
C4        C        0.53125        0.259259        0.3281541923076923        0        
C1        C        0.5        0.351852        0.3281541923076923        0        
C2        C        0.53125        0.407408        0.3281541923076923        0        
C3        C        0.5        0.42592500000000005        0.3281541923076923        0        
C4        C        0.53125        0.37037        0.3281541923076923        0        
C1        C        0.5        0.46296300000000007        0.3281541923076923        0        
C2        C        0.53125        0.518519        0.3281541923076923        0        
C3        C        0.5        0.537037        0.3281541923076923        0        
C4        C        0.53125        0.481481        0.3281541923076923        0        
C1        C        0.5        0.574075        0.3281541923076923        0        
C2        C        0.53125        0.62963        0.3281541923076923        0        
C3        C        0.5        0.648148        0.3281541923076923        0        
C4        C        0.53125        0.592592        0.3281541923076923        0        
C1        C        0.5625        0.018519        0.3281541923076923        0        
C2        C        0.59375        0.074075        0.3281541923076923        0        
C3        C        0.5625        0.092592        0.3281541923076923        0        
C4        C        0.59375        0.037037        0.3281541923076923        0        
C1        C        0.5625        0.12963        0.3281541923076923        0        
C2        C        0.59375        0.185185        0.3281541923076923        0        
C3        C        0.5625        0.203703        0.3281541923076923        0        
C4        C        0.59375        0.148148        0.3281541923076923        0        
C1        C        0.5625        0.24074099999999998        0.3281541923076923        0        
C2        C        0.59375        0.296297        0.3281541923076923        0        
C3        C        0.5625        0.314815        0.3281541923076923        0        
C4        C        0.59375        0.259259        0.3281541923076923        0        
C1        C        0.5625        0.351852        0.3281541923076923        0        
C2        C        0.59375        0.407408        0.3281541923076923        0        
C3        C        0.5625        0.42592500000000005        0.3281541923076923        0        
C4        C        0.59375        0.37037        0.3281541923076923        0        
C1        C        0.5625        0.46296300000000007        0.3281541923076923        0        
C2        C        0.59375        0.518519        0.3281541923076923        0        
C3        C        0.5625        0.537037        0.3281541923076923        0        
C4        C        0.59375        0.481481        0.3281541923076923        0        
C1        C        0.5625        0.574075        0.3281541923076923        0        
C2        C        0.59375        0.62963        0.3281541923076923        0        
C3        C        0.5625        0.648148        0.3281541923076923        0        
C4        C        0.59375        0.592592        0.3281541923076923        0        
C1        C        0.625        0.018519        0.3281541923076923        0        
C2        C        0.65625        0.074075        0.3281541923076923        0        
C3        C        0.625        0.092592        0.3281541923076923        0        
C4        C        0.65625        0.037037        0.3281541923076923        0        
C1        C        0.625        0.12963        0.3281541923076923        0        
C2        C        0.65625        0.185185        0.3281541923076923        0        
C3        C        0.625        0.203703        0.3281541923076923        0        
C4        C        0.65625        0.148148        0.3281541923076923        0        
C1        C        0.625        0.24074099999999998        0.3281541923076923        0        
C2        C        0.65625        0.296297        0.3281541923076923        0        
C3        C        0.625        0.314815        0.3281541923076923        0        
C4        C        0.65625        0.259259        0.3281541923076923        0        
C1        C        0.625        0.351852        0.3281541923076923        0        
C2        C        0.65625        0.407408        0.3281541923076923        0        
C3        C        0.625        0.42592500000000005        0.3281541923076923        0        
C4        C        0.65625        0.37037        0.3281541923076923        0        
C1        C        0.625        0.46296300000000007        0.3281541923076923        0        
C2        C        0.65625        0.518519        0.3281541923076923        0        
C3        C        0.625        0.537037        0.3281541923076923        0        
C4        C        0.65625        0.481481        0.3281541923076923        0        
C1        C        0.625        0.574075        0.3281541923076923        0        
C2        C        0.65625        0.62963        0.3281541923076923        0        
C3        C        0.625        0.648148        0.3281541923076923        0        
C4        C        0.65625        0.592592        0.3281541923076923        0        
C1        C        0.6875        0.018519        0.3281541923076923        0        
C2        C        0.71875        0.074075        0.3281541923076923        0        
C3        C        0.6875        0.092592        0.3281541923076923        0        
C4        C        0.71875        0.037037        0.3281541923076923        0        
C1        C        0.6875        0.12963        0.3281541923076923        0        
C2        C        0.71875        0.185185        0.3281541923076923        0        
C3        C        0.6875        0.203703        0.3281541923076923        0        
C4        C        0.71875        0.148148        0.3281541923076923        0        
C1        C        0.6875        0.24074099999999998        0.3281541923076923        0        
C2        C        0.71875        0.296297        0.3281541923076923        0        
C3        C        0.6875        0.314815        0.3281541923076923        0        
C4        C        0.71875        0.259259        0.3281541923076923        0        
C1        C        0.6875        0.351852        0.3281541923076923        0        
C2        C        0.71875        0.407408        0.3281541923076923        0        
C3        C        0.6875        0.42592500000000005        0.3281541923076923        0        
C4        C        0.71875        0.37037        0.3281541923076923        0        
C1        C        0.6875        0.46296300000000007        0.3281541923076923        0        
C2        C        0.71875        0.518519        0.3281541923076923        0        
C3        C        0.6875        0.537037        0.3281541923076923        0        
C4        C        0.71875        0.481481        0.3281541923076923        0        
C1        C        0.6875        0.574075        0.3281541923076923        0        
C2        C        0.71875        0.62963        0.3281541923076923        0        
C3        C        0.6875        0.648148        0.3281541923076923        0        
C4        C        0.71875        0.592592        0.3281541923076923        0        
C1        C        0.75        0.018519        0.3281541923076923        0        
C2        C        0.78125        0.074075        0.3281541923076923        0        
C3        C        0.75        0.092592        0.3281541923076923        0        
C4        C        0.78125        0.037037        0.3281541923076923        0        
C1        C        0.75        0.12963        0.3281541923076923        0        
C2        C        0.78125        0.185185        0.3281541923076923        0        
C3        C        0.75        0.203703        0.3281541923076923        0        
C4        C        0.78125        0.148148        0.3281541923076923        0        
C1        C        0.75        0.24074099999999998        0.3281541923076923        0        
C2        C        0.78125        0.296297        0.3281541923076923        0        
C3        C        0.75        0.314815        0.3281541923076923        0        
C4        C        0.78125        0.259259        0.3281541923076923        0        
C1        C        0.75        0.351852        0.3281541923076923        0        
C2        C        0.78125        0.407408        0.3281541923076923        0        
C3        C        0.75        0.42592500000000005        0.3281541923076923        0        
C4        C        0.78125        0.37037        0.3281541923076923        0        
C1        C        0.75        0.46296300000000007        0.3281541923076923        0        
C2        C        0.78125        0.518519        0.3281541923076923        0        
C3        C        0.75        0.537037        0.3281541923076923        0        
C4        C        0.78125        0.481481        0.3281541923076923        0        
C1        C        0.75        0.574075        0.3281541923076923        0        
C2        C        0.78125        0.62963        0.3281541923076923        0        
C3        C        0.75        0.648148        0.3281541923076923        0        
C4        C        0.78125        0.592592        0.3281541923076923        0        
C1        C        0.8125        0.018519        0.3281541923076923        0        
C2        C        0.84375        0.074075        0.3281541923076923        0        
C3        C        0.8125        0.092592        0.3281541923076923        0        
C4        C        0.84375        0.037037        0.3281541923076923        0        
C1        C        0.8125        0.12963        0.3281541923076923        0        
C2        C        0.84375        0.185185        0.3281541923076923        0        
C3        C        0.8125        0.203703        0.3281541923076923        0        
C4        C        0.84375        0.148148        0.3281541923076923        0        
C1        C        0.8125        0.24074099999999998        0.3281541923076923        0        
C2        C        0.84375        0.296297        0.3281541923076923        0        
C3        C        0.8125        0.314815        0.3281541923076923        0        
C4        C        0.84375        0.259259        0.3281541923076923        0        
C1        C        0.8125        0.351852        0.3281541923076923        0        
C2        C        0.84375        0.407408        0.3281541923076923        0        
C3        C        0.8125        0.42592500000000005        0.3281541923076923        0        
C4        C        0.84375        0.37037        0.3281541923076923        0        
C1        C        0.8125        0.46296300000000007        0.3281541923076923        0        
C2        C        0.84375        0.518519        0.3281541923076923        0        
C3        C        0.8125        0.537037        0.3281541923076923        0        
C4        C        0.84375        0.481481        0.3281541923076923        0        
C1        C        0.8125        0.574075        0.3281541923076923        0        
C2        C        0.84375        0.62963        0.3281541923076923        0        
C3        C        0.8125        0.648148        0.3281541923076923        0        
C4        C        0.84375        0.592592        0.3281541923076923        0        
C1        C        0.875        0.018519        0.3281541923076923        0        
C2        C        0.9062500000000001        0.074075        0.3281541923076923        0        
C3        C        0.875        0.092592        0.3281541923076923        0        
C4        C        0.9062500000000001        0.037037        0.3281541923076923        0        
C1        C        0.875        0.12963        0.3281541923076923        0        
C2        C        0.9062500000000001        0.185185        0.3281541923076923        0        
C3        C        0.875        0.203703        0.3281541923076923        0        
C4        C        0.9062500000000001        0.148148        0.3281541923076923        0        
C1        C        0.875        0.24074099999999998        0.3281541923076923        0        
C2        C        0.9062500000000001        0.296297        0.3281541923076923        0        
C3        C        0.875        0.314815        0.3281541923076923        0        
C4        C        0.9062500000000001        0.259259        0.3281541923076923        0        
C1        C        0.875        0.351852        0.3281541923076923        0        
C2        C        0.9062500000000001        0.407408        0.3281541923076923        0        
C3        C        0.875        0.42592500000000005        0.3281541923076923        0        
C4        C        0.9062500000000001        0.37037        0.3281541923076923        0        
C1        C        0.875        0.46296300000000007        0.3281541923076923        0        
C2        C        0.9062500000000001        0.518519        0.3281541923076923        0        
C3        C        0.875        0.537037        0.3281541923076923        0        
C4        C        0.9062500000000001        0.481481        0.3281541923076923        0        
C1        C        0.875        0.574075        0.3281541923076923        0        
C2        C        0.9062500000000001        0.62963        0.3281541923076923        0        
C3        C        0.875        0.648148        0.3281541923076923        0        
C4        C        0.9062500000000001        0.592592        0.3281541923076923        0        
C1        C        0.9375        0.018519        0.3281541923076923        0        
C2        C        0.9687500000000001        0.074075        0.3281541923076923        0        
C3        C        0.9375        0.092592        0.3281541923076923        0        
C4        C        0.9687500000000001        0.037037        0.3281541923076923        0        
C1        C        0.9375        0.12963        0.3281541923076923        0        
C2        C        0.9687500000000001        0.185185        0.3281541923076923        0        
C3        C        0.9375        0.203703        0.3281541923076923        0        
C4        C        0.9687500000000001        0.148148        0.3281541923076923        0        
C1        C        0.9375        0.24074099999999998        0.3281541923076923        0        
C2        C        0.9687500000000001        0.296297        0.3281541923076923        0        
C3        C        0.9375        0.314815        0.3281541923076923        0        
C4        C        0.9687500000000001        0.259259        0.3281541923076923        0        
C1        C        0.9375        0.351852        0.3281541923076923        0        
C2        C        0.9687500000000001        0.407408        0.3281541923076923        0        
C3        C        0.9375        0.42592500000000005        0.3281541923076923        0        
C4        C        0.9687500000000001        0.37037        0.3281541923076923        0        
C1        C        0.9375        0.46296300000000007        0.3281541923076923        0        
C2        C        0.9687500000000001        0.518519        0.3281541923076923        0        
C3        C        0.9375        0.537037        0.3281541923076923        0        
C4        C        0.9687500000000001        0.481481        0.3281541923076923        0        
C1        C        0.9375        0.574075        0.3281541923076923        0        
C2        C        0.9687500000000001        0.62963        0.3281541923076923        0        
C3        C        0.9375        0.648148        0.3281541923076923        0        
C4        C        0.9687500000000001        0.592592        0.3281541923076923        0        
C1        C        0.0        0.685186        0.3281541923076923        0        
C1        C        0.0625        0.685186        0.3281541923076923        0        
C1        C        0.125        0.685186        0.3281541923076923        0        
C1        C        0.1875        0.685186        0.3281541923076923        0        
C1        C        0.25        0.685186        0.3281541923076923        0        
C1        C        0.3125        0.685186        0.3281541923076923        0        
C1        C        0.375        0.685186        0.3281541923076923        0        
C1        C        0.4375        0.685186        0.3281541923076923        0        
C1        C        0.5        0.685186        0.3281541923076923        0        
C1        C        0.5625        0.685186        0.3281541923076923        0        
C1        C        0.625        0.685186        0.3281541923076923        0        
C1        C        0.6875        0.685186        0.3281541923076923        0        
C1        C        0.75        0.685186        0.3281541923076923        0        
C1        C        0.8125        0.685186        0.3281541923076923        0        
C1        C        0.875        0.685186        0.3281541923076923        0        
C1        C        0.9375        0.685186        0.3281541923076923        0        
C2        C        0.03125        0.740741        0.3281541923076923        0        
C2        C        0.09375        0.740741        0.3281541923076923        0        
C2        C        0.15625        0.740741        0.3281541923076923        0        
C2        C        0.21875        0.740741        0.3281541923076923        0        
C2        C        0.28125        0.740741        0.3281541923076923        0        
C2        C        0.34375        0.740741        0.3281541923076923        0        
C2        C        0.40625        0.740741        0.3281541923076923        0        
C2        C        0.46875        0.740741        0.3281541923076923        0        
C2        C        0.53125        0.740741        0.3281541923076923        0        
C2        C        0.59375        0.740741        0.3281541923076923        0        
C2        C        0.65625        0.740741        0.3281541923076923        0        
C2        C        0.71875        0.740741        0.3281541923076923        0        
C2        C        0.78125        0.740741        0.3281541923076923        0        
C2        C        0.84375        0.740741        0.3281541923076923        0        
C2        C        0.9062500000000001        0.740741        0.3281541923076923        0        
C2        C        0.9687500000000001        0.740741        0.3281541923076923        0        
C3        C        0.0        0.759259        0.3281541923076923        0        
C3        C        0.0625        0.759259        0.3281541923076923        0        
C3        C        0.125        0.759259        0.3281541923076923        0        
C3        C        0.1875        0.759259        0.3281541923076923        0        
C3        C        0.25        0.759259        0.3281541923076923        0        
C3        C        0.3125        0.759259        0.3281541923076923        0        
C3        C        0.375        0.759259        0.3281541923076923        0        
C3        C        0.4375        0.759259        0.3281541923076923        0        
C3        C        0.5        0.759259        0.3281541923076923        0        
C3        C        0.5625        0.759259        0.3281541923076923        0        
C3        C        0.625        0.759259        0.3281541923076923        0        
C3        C        0.6875        0.759259        0.3281541923076923        0        
C3        C        0.75        0.759259        0.3281541923076923        0        
C3        C        0.8125        0.759259        0.3281541923076923        0        
C3        C        0.875        0.759259        0.3281541923076923        0        
C3        C        0.9375        0.759259        0.3281541923076923        0        
C4        C        0.03125        0.703703        0.3281541923076923        0        
C4        C        0.09375        0.703703        0.3281541923076923        0        
C4        C        0.15625        0.703703        0.3281541923076923        0        
C4        C        0.21875        0.703703        0.3281541923076923        0        
C4        C        0.28125        0.703703        0.3281541923076923        0        
C4        C        0.34375        0.703703        0.3281541923076923        0        
C4        C        0.40625        0.703703        0.3281541923076923        0        
C4        C        0.46875        0.703703        0.3281541923076923        0        
C4        C        0.53125        0.703703        0.3281541923076923        0        
C4        C        0.59375        0.703703        0.3281541923076923        0        
C4        C        0.65625        0.703703        0.3281541923076923        0        
C4        C        0.71875        0.703703        0.3281541923076923        0        
C4        C        0.78125        0.703703        0.3281541923076923        0        
C4        C        0.84375        0.703703        0.3281541923076923        0        
C4        C        0.9062500000000001        0.703703        0.3281541923076923        0        
C4        C        0.9687500000000001        0.703703        0.3281541923076923        0        
C1        C        0.0        0.796297        0.3281541923076923        0        
C1        C        0.0625        0.796297        0.3281541923076923        0        
C1        C        0.125        0.796297        0.3281541923076923        0        
C1        C        0.1875        0.796297        0.3281541923076923        0        
C1        C        0.25        0.796297        0.3281541923076923        0        
C1        C        0.3125        0.796297        0.3281541923076923        0        
C1        C        0.375        0.796297        0.3281541923076923        0        
C1        C        0.4375        0.796297        0.3281541923076923        0        
C1        C        0.5        0.796297        0.3281541923076923        0        
C1        C        0.5625        0.796297        0.3281541923076923        0        
C1        C        0.625        0.796297        0.3281541923076923        0        
C1        C        0.6875        0.796297        0.3281541923076923        0        
C1        C        0.75        0.796297        0.3281541923076923        0        
C1        C        0.8125        0.796297        0.3281541923076923        0        
C1        C        0.875        0.796297        0.3281541923076923        0        
C1        C        0.9375        0.796297        0.3281541923076923        0        
C2        C        0.03125        0.851852        0.3281541923076923        0        
C2        C        0.09375        0.851852        0.3281541923076923        0        
C2        C        0.15625        0.851852        0.3281541923076923        0        
C2        C        0.21875        0.851852        0.3281541923076923        0        
C2        C        0.28125        0.851852        0.3281541923076923        0        
C2        C        0.34375        0.851852        0.3281541923076923        0        
C2        C        0.40625        0.851852        0.3281541923076923        0        
C2        C        0.46875        0.851852        0.3281541923076923        0        
C2        C        0.53125        0.851852        0.3281541923076923        0        
C2        C        0.59375        0.851852        0.3281541923076923        0        
C2        C        0.65625        0.851852        0.3281541923076923        0        
C2        C        0.71875        0.851852        0.3281541923076923        0        
C2        C        0.78125        0.851852        0.3281541923076923        0        
C2        C        0.84375        0.851852        0.3281541923076923        0        
C2        C        0.9062500000000001        0.851852        0.3281541923076923        0        
C2        C        0.9687500000000001        0.851852        0.3281541923076923        0        
C3        C        0.0        0.87037        0.3281541923076923        0        
C3        C        0.0625        0.87037        0.3281541923076923        0        
C3        C        0.125        0.87037        0.3281541923076923        0        
C3        C        0.1875        0.87037        0.3281541923076923        0        
C3        C        0.25        0.87037        0.3281541923076923        0        
C3        C        0.3125        0.87037        0.3281541923076923        0        
C3        C        0.375        0.87037        0.3281541923076923        0        
C3        C        0.4375        0.87037        0.3281541923076923        0        
C3        C        0.5        0.87037        0.3281541923076923        0        
C3        C        0.5625        0.87037        0.3281541923076923        0        
C3        C        0.625        0.87037        0.3281541923076923        0        
C3        C        0.6875        0.87037        0.3281541923076923        0        
C3        C        0.75        0.87037        0.3281541923076923        0        
C3        C        0.8125        0.87037        0.3281541923076923        0        
C3        C        0.875        0.87037        0.3281541923076923        0        
C3        C        0.9375        0.87037        0.3281541923076923        0        
C4        C        0.03125        0.814814        0.3281541923076923        0        
C4        C        0.09375        0.814814        0.3281541923076923        0        
C4        C        0.15625        0.814814        0.3281541923076923        0        
C4        C        0.21875        0.814814        0.3281541923076923        0        
C4        C        0.28125        0.814814        0.3281541923076923        0        
C4        C        0.34375        0.814814        0.3281541923076923        0        
C4        C        0.40625        0.814814        0.3281541923076923        0        
C4        C        0.46875        0.814814        0.3281541923076923        0        
C4        C        0.53125        0.814814        0.3281541923076923        0        
C4        C        0.59375        0.814814        0.3281541923076923        0        
C4        C        0.65625        0.814814        0.3281541923076923        0        
C4        C        0.71875        0.814814        0.3281541923076923        0        
C4        C        0.78125        0.814814        0.3281541923076923        0        
C4        C        0.84375        0.814814        0.3281541923076923        0        
C4        C        0.9062500000000001        0.814814        0.3281541923076923        0        
C4        C        0.9687500000000001        0.814814        0.3281541923076923        0        
C1        C        0.0        0.907408        0.3281541923076923        0        
C1        C        0.0625        0.907408        0.3281541923076923        0        
C1        C        0.125        0.907408        0.3281541923076923        0        
C1        C        0.1875        0.907408        0.3281541923076923        0        
C1        C        0.25        0.907408        0.3281541923076923        0        
C1        C        0.3125        0.907408        0.3281541923076923        0        
C1        C        0.375        0.907408        0.3281541923076923        0        
C1        C        0.4375        0.907408        0.3281541923076923        0        
C1        C        0.5        0.907408        0.3281541923076923        0        
C1        C        0.5625        0.907408        0.3281541923076923        0        
C1        C        0.625        0.907408        0.3281541923076923        0        
C1        C        0.6875        0.907408        0.3281541923076923        0        
C1        C        0.75        0.907408        0.3281541923076923        0        
C1        C        0.8125        0.907408        0.3281541923076923        0        
C1        C        0.875        0.907408        0.3281541923076923        0        
C1        C        0.9375        0.907408        0.3281541923076923        0        
C2        C        0.03125        0.962963        0.3281541923076923        0        
C2        C        0.09375        0.962963        0.3281541923076923        0        
C2        C        0.15625        0.962963        0.3281541923076923        0        
C2        C        0.21875        0.962963        0.3281541923076923        0        
C2        C        0.28125        0.962963        0.3281541923076923        0        
C2        C        0.34375        0.962963        0.3281541923076923        0        
C2        C        0.40625        0.962963        0.3281541923076923        0        
C2        C        0.46875        0.962963        0.3281541923076923        0        
C2        C        0.53125        0.962963        0.3281541923076923        0        
C2        C        0.59375        0.962963        0.3281541923076923        0        
C2        C        0.65625        0.962963        0.3281541923076923        0        
C2        C        0.71875        0.962963        0.3281541923076923        0        
C2        C        0.78125        0.962963        0.3281541923076923        0        
C2        C        0.84375        0.962963        0.3281541923076923        0        
C2        C        0.9062500000000001        0.962963        0.3281541923076923        0        
C2        C        0.9687500000000001        0.962963        0.3281541923076923        0        
C3        C        0.0        0.9814809999999999        0.3281541923076923        0        
C3        C        0.0625        0.9814809999999999        0.3281541923076923        0        
C3        C        0.125        0.9814809999999999        0.3281541923076923        0        
C3        C        0.1875        0.9814809999999999        0.3281541923076923        0        
C3        C        0.25        0.9814809999999999        0.3281541923076923        0        
C3        C        0.3125        0.9814809999999999        0.3281541923076923        0        
C3        C        0.375        0.9814809999999999        0.3281541923076923        0        
C3        C        0.4375        0.9814809999999999        0.3281541923076923        0        
C3        C        0.5        0.9814809999999999        0.3281541923076923        0        
C3        C        0.5625        0.9814809999999999        0.3281541923076923        0        
C3        C        0.625        0.9814809999999999        0.3281541923076923        0        
C3        C        0.6875        0.9814809999999999        0.3281541923076923        0        
C3        C        0.75        0.9814809999999999        0.3281541923076923        0        
C3        C        0.8125        0.9814809999999999        0.3281541923076923        0        
C3        C        0.875        0.9814809999999999        0.3281541923076923        0        
C3        C        0.9375        0.9814809999999999        0.3281541923076923        0        
C4        C        0.03125        0.925925        0.3281541923076923        0        
C4        C        0.09375        0.925925        0.3281541923076923        0        
C4        C        0.15625        0.925925        0.3281541923076923        0        
C4        C        0.21875        0.925925        0.3281541923076923        0        
C4        C        0.28125        0.925925        0.3281541923076923        0        
C4        C        0.34375        0.925925        0.3281541923076923        0        
C4        C        0.40625        0.925925        0.3281541923076923        0        
C4        C        0.46875        0.925925        0.3281541923076923        0        
C4        C        0.53125        0.925925        0.3281541923076923        0        
C4        C        0.59375        0.925925        0.3281541923076923        0        
C4        C        0.65625        0.925925        0.3281541923076923        0        
C4        C        0.71875        0.925925        0.3281541923076923        0        
C4        C        0.78125        0.925925        0.3281541923076923        0        
C4        C        0.84375        0.925925        0.3281541923076923        0        
C4        C        0.9062500000000001        0.925925        0.3281541923076923        0        
C4        C        0.9687500000000001        0.925925        0.3281541923076923        0        
C_FG        C        0.0        0.018519        0.5428971923076924        0.2        
C2        C        0.03125        0.074075        0.5428971923076924        0        
C3        C        0.0        0.092592        0.5428971923076924        0        
C4        C        0.03125        0.037037        0.5428971923076924        0        
C1        C        0.0        0.12963        0.5428971923076924        0        
C2        C        0.03125        0.185185        0.5428971923076924        0        
C3        C        0.0        0.203703        0.5428971923076924        0        
C4        C        0.03125        0.148148        0.5428971923076924        0        
C1        C        0.0        0.24074099999999998        0.5428971923076924        0        
C2        C        0.03125        0.296297        0.5428971923076924        0        
C_FG        C        0.0        0.314815        0.5428971923076924        0.2        
C4        C        0.03125        0.259259        0.5428971923076924        0        
C1        C        0.0        0.351852        0.5428971923076924        0        
C2        C        0.03125        0.407408        0.5428971923076924        0        
C3        C        0.0        0.42592500000000005        0.5428971923076924        0        
C4        C        0.03125        0.37037        0.5428971923076924        0        
C1        C        0.0        0.46296300000000007        0.5428971923076924        0        
C2        C        0.03125        0.518519        0.5428971923076924        0        
C3        C        0.0        0.537037        0.5428971923076924        0        
C4        C        0.03125        0.481481        0.5428971923076924        0        
C_FG        C        0.0        0.574075        0.5428971923076924        0.2        
C2        C        0.03125        0.62963        0.5428971923076924        0        
C3        C        0.0        0.648148        0.5428971923076924        0        
C4        C        0.03125        0.592592        0.5428971923076924        0        
C1        C        0.0625        0.018519        0.5428971923076924        0        
C2        C        0.09375        0.074075        0.5428971923076924        0        
C3        C        0.0625        0.092592        0.5428971923076924        0        
C4        C        0.09375        0.037037        0.5428971923076924        0        
C1        C        0.0625        0.12963        0.5428971923076924        0        
C2        C        0.09375        0.185185        0.5428971923076924        0        
C3        C        0.0625        0.203703        0.5428971923076924        0        
C4        C        0.09375        0.148148        0.5428971923076924        0        
C1        C        0.0625        0.24074099999999998        0.5428971923076924        0        
C2        C        0.09375        0.296297        0.5428971923076924        0        
C3        C        0.0625        0.314815        0.5428971923076924        0        
C4        C        0.09375        0.259259        0.5428971923076924        0        
C1        C        0.0625        0.351852        0.5428971923076924        0        
C2        C        0.09375        0.407408        0.5428971923076924        0        
C3        C        0.0625        0.42592500000000005        0.5428971923076924        0        
C4        C        0.09375        0.37037        0.5428971923076924        0        
C1        C        0.0625        0.46296300000000007        0.5428971923076924        0        
C2        C        0.09375        0.518519        0.5428971923076924        0        
C3        C        0.0625        0.537037        0.5428971923076924        0        
C4        C        0.09375        0.481481        0.5428971923076924        0        
C1        C        0.0625        0.574075        0.5428971923076924        0        
C2        C        0.09375        0.62963        0.5428971923076924        0        
C3        C        0.0625        0.648148        0.5428971923076924        0        
C4        C        0.09375        0.592592        0.5428971923076924        0        
C1        C        0.125        0.018519        0.5428971923076924        0        
C2        C        0.15625        0.074075        0.5428971923076924        0        
C3        C        0.125        0.092592        0.5428971923076924        0        
C4        C        0.15625        0.037037        0.5428971923076924        0        
C1        C        0.125        0.12963        0.5428971923076924        0        
C2        C        0.15625        0.185185        0.5428971923076924        0        
C3        C        0.125        0.203703        0.5428971923076924        0        
C4        C        0.15625        0.148148        0.5428971923076924        0        
C1        C        0.125        0.24074099999999998        0.5428971923076924        0        
C2        C        0.15625        0.296297        0.5428971923076924        0        
C3        C        0.125        0.314815        0.5428971923076924        0        
C4        C        0.15625        0.259259        0.5428971923076924        0        
C1        C        0.125        0.351852        0.5428971923076924        0        
C2        C        0.15625        0.407408        0.5428971923076924        0        
C3        C        0.125        0.42592500000000005        0.5428971923076924        0        
C4        C        0.15625        0.37037        0.5428971923076924        0        
C1        C        0.125        0.46296300000000007        0.5428971923076924        0        
C2        C        0.15625        0.518519        0.5428971923076924        0        
C3        C        0.125        0.537037        0.5428971923076924        0        
C4        C        0.15625        0.481481        0.5428971923076924        0        
C1        C        0.125        0.574075        0.5428971923076924        0        
C2        C        0.15625        0.62963        0.5428971923076924        0        
C3        C        0.125        0.648148        0.5428971923076924        0        
C4        C        0.15625        0.592592        0.5428971923076924        0        
C1        C        0.1875        0.018519        0.5428971923076924        0        
C2        C        0.21875        0.074075        0.5428971923076924        0        
C3        C        0.1875        0.092592        0.5428971923076924        0        
C4        C        0.21875        0.037037        0.5428971923076924        0        
C1        C        0.1875        0.12963        0.5428971923076924        0        
C2        C        0.21875        0.185185        0.5428971923076924        0        
C3        C        0.1875        0.203703        0.5428971923076924        0        
C4        C        0.21875        0.148148        0.5428971923076924        0        
C1        C        0.1875        0.24074099999999998        0.5428971923076924        0        
C2        C        0.21875        0.296297        0.5428971923076924        0        
C3        C        0.1875        0.314815        0.5428971923076924        0        
C4        C        0.21875        0.259259        0.5428971923076924        0        
C1        C        0.1875        0.351852        0.5428971923076924        0        
C2        C        0.21875        0.407408        0.5428971923076924        0        
C3        C        0.1875        0.42592500000000005        0.5428971923076924        0        
C4        C        0.21875        0.37037        0.5428971923076924        0        
C1        C        0.1875        0.46296300000000007        0.5428971923076924        0        
C2        C        0.21875        0.518519        0.5428971923076924        0        
C3        C        0.1875        0.537037        0.5428971923076924        0        
C4        C        0.21875        0.481481        0.5428971923076924        0        
C1        C        0.1875        0.574075        0.5428971923076924        0        
C2        C        0.21875        0.62963        0.5428971923076924        0        
C3        C        0.1875        0.648148        0.5428971923076924        0        
C4        C        0.21875        0.592592        0.5428971923076924        0        
C_FG        C        0.25        0.018519        0.5428971923076924        0.2        
C2        C        0.28125        0.074075        0.5428971923076924        0        
C3        C        0.25        0.092592        0.5428971923076924        0        
C4        C        0.28125        0.037037        0.5428971923076924        0        
C1        C        0.25        0.12963        0.5428971923076924        0        
C2        C        0.28125        0.185185        0.5428971923076924        0        
C3        C        0.25        0.203703        0.5428971923076924        0        
C4        C        0.28125        0.148148        0.5428971923076924        0        
C1        C        0.25        0.24074099999999998        0.5428971923076924        0        
C2        C        0.28125        0.296297        0.5428971923076924        0        
C_FG        C        0.25        0.314815        0.5428971923076924        0.2        
C4        C        0.28125        0.259259        0.5428971923076924        0        
C1        C        0.25        0.351852        0.5428971923076924        0        
C2        C        0.28125        0.407408        0.5428971923076924        0        
C3        C        0.25        0.42592500000000005        0.5428971923076924        0        
C4        C        0.28125        0.37037        0.5428971923076924        0        
C1        C        0.25        0.46296300000000007        0.5428971923076924        0        
C2        C        0.28125        0.518519        0.5428971923076924        0        
C3        C        0.25        0.537037        0.5428971923076924        0        
C4        C        0.28125        0.481481        0.5428971923076924        0        
C_FG        C        0.25        0.574075        0.5428971923076924        0.2        
C2        C        0.28125        0.62963        0.5428971923076924        0        
C3        C        0.25        0.648148        0.5428971923076924        0        
C4        C        0.28125        0.592592        0.5428971923076924        0        
C1        C        0.3125        0.018519        0.5428971923076924        0        
C2        C        0.34375        0.074075        0.5428971923076924        0        
C3        C        0.3125        0.092592        0.5428971923076924        0        
C4        C        0.34375        0.037037        0.5428971923076924        0        
C1        C        0.3125        0.12963        0.5428971923076924        0        
C2        C        0.34375        0.185185        0.5428971923076924        0        
C3        C        0.3125        0.203703        0.5428971923076924        0        
C4        C        0.34375        0.148148        0.5428971923076924        0        
C1        C        0.3125        0.24074099999999998        0.5428971923076924        0        
C2        C        0.34375        0.296297        0.5428971923076924        0        
C3        C        0.3125        0.314815        0.5428971923076924        0        
C4        C        0.34375        0.259259        0.5428971923076924        0        
C1        C        0.3125        0.351852        0.5428971923076924        0        
C2        C        0.34375        0.407408        0.5428971923076924        0        
C3        C        0.3125        0.42592500000000005        0.5428971923076924        0        
C4        C        0.34375        0.37037        0.5428971923076924        0        
C1        C        0.3125        0.46296300000000007        0.5428971923076924        0        
C2        C        0.34375        0.518519        0.5428971923076924        0        
C3        C        0.3125        0.537037        0.5428971923076924        0        
C4        C        0.34375        0.481481        0.5428971923076924        0        
C1        C        0.3125        0.574075        0.5428971923076924        0        
C2        C        0.34375        0.62963        0.5428971923076924        0        
C3        C        0.3125        0.648148        0.5428971923076924        0        
C4        C        0.34375        0.592592        0.5428971923076924        0        
C1        C        0.375        0.018519        0.5428971923076924        0        
C2        C        0.40625        0.074075        0.5428971923076924        0        
C3        C        0.375        0.092592        0.5428971923076924        0        
C4        C        0.40625        0.037037        0.5428971923076924        0        
C1        C        0.375        0.12963        0.5428971923076924        0        
C2        C        0.40625        0.185185        0.5428971923076924        0        
C3        C        0.375        0.203703        0.5428971923076924        0        
C4        C        0.40625        0.148148        0.5428971923076924        0        
C1        C        0.375        0.24074099999999998        0.5428971923076924        0        
C2        C        0.40625        0.296297        0.5428971923076924        0        
C3        C        0.375        0.314815        0.5428971923076924        0        
C4        C        0.40625        0.259259        0.5428971923076924        0        
C1        C        0.375        0.351852        0.5428971923076924        0        
C2        C        0.40625        0.407408        0.5428971923076924        0        
C3        C        0.375        0.42592500000000005        0.5428971923076924        0        
C4        C        0.40625        0.37037        0.5428971923076924        0        
C1        C        0.375        0.46296300000000007        0.5428971923076924        0        
C2        C        0.40625        0.518519        0.5428971923076924        0        
C3        C        0.375        0.537037        0.5428971923076924        0        
C4        C        0.40625        0.481481        0.5428971923076924        0        
C1        C        0.375        0.574075        0.5428971923076924        0        
C2        C        0.40625        0.62963        0.5428971923076924        0        
C3        C        0.375        0.648148        0.5428971923076924        0        
C4        C        0.40625        0.592592        0.5428971923076924        0        
C1        C        0.4375        0.018519        0.5428971923076924        0        
C2        C        0.46875        0.074075        0.5428971923076924        0        
C3        C        0.4375        0.092592        0.5428971923076924        0        
C4        C        0.46875        0.037037        0.5428971923076924        0        
C1        C        0.4375        0.12963        0.5428971923076924        0        
C2        C        0.46875        0.185185        0.5428971923076924        0        
C3        C        0.4375        0.203703        0.5428971923076924        0        
C4        C        0.46875        0.148148        0.5428971923076924        0        
C1        C        0.4375        0.24074099999999998        0.5428971923076924        0        
C2        C        0.46875        0.296297        0.5428971923076924        0        
C3        C        0.4375        0.314815        0.5428971923076924        0        
C4        C        0.46875        0.259259        0.5428971923076924        0        
C1        C        0.4375        0.351852        0.5428971923076924        0        
C2        C        0.46875        0.407408        0.5428971923076924        0        
C3        C        0.4375        0.42592500000000005        0.5428971923076924        0        
C4        C        0.46875        0.37037        0.5428971923076924        0        
C1        C        0.4375        0.46296300000000007        0.5428971923076924        0        
C2        C        0.46875        0.518519        0.5428971923076924        0        
C3        C        0.4375        0.537037        0.5428971923076924        0        
C4        C        0.46875        0.481481        0.5428971923076924        0        
C1        C        0.4375        0.574075        0.5428971923076924        0        
C2        C        0.46875        0.62963        0.5428971923076924        0        
C3        C        0.4375        0.648148        0.5428971923076924        0        
C4        C        0.46875        0.592592        0.5428971923076924        0        
C_FG        C        0.5        0.018519        0.5428971923076924        0.2        
C2        C        0.53125        0.074075        0.5428971923076924        0        
C3        C        0.5        0.092592        0.5428971923076924        0        
C4        C        0.53125        0.037037        0.5428971923076924        0        
C1        C        0.5        0.12963        0.5428971923076924        0        
C2        C        0.53125        0.185185        0.5428971923076924        0        
C3        C        0.5        0.203703        0.5428971923076924        0        
C4        C        0.53125        0.148148        0.5428971923076924        0        
C1        C        0.5        0.24074099999999998        0.5428971923076924        0        
C2        C        0.53125        0.296297        0.5428971923076924        0        
C_FG        C        0.5        0.314815        0.5428971923076924        0.2        
C4        C        0.53125        0.259259        0.5428971923076924        0        
C1        C        0.5        0.351852        0.5428971923076924        0        
C2        C        0.53125        0.407408        0.5428971923076924        0        
C3        C        0.5        0.42592500000000005        0.5428971923076924        0        
C4        C        0.53125        0.37037        0.5428971923076924        0        
C1        C        0.5        0.46296300000000007        0.5428971923076924        0        
C2        C        0.53125        0.518519        0.5428971923076924        0        
C3        C        0.5        0.537037        0.5428971923076924        0        
C4        C        0.53125        0.481481        0.5428971923076924        0        
C_FG        C        0.5        0.574075        0.5428971923076924        0.2        
C2        C        0.53125        0.62963        0.5428971923076924        0        
C3        C        0.5        0.648148        0.5428971923076924        0        
C4        C        0.53125        0.592592        0.5428971923076924        0        
C1        C        0.5625        0.018519        0.5428971923076924        0        
C2        C        0.59375        0.074075        0.5428971923076924        0        
C3        C        0.5625        0.092592        0.5428971923076924        0        
C4        C        0.59375        0.037037        0.5428971923076924        0        
C1        C        0.5625        0.12963        0.5428971923076924        0        
C2        C        0.59375        0.185185        0.5428971923076924        0        
C3        C        0.5625        0.203703        0.5428971923076924        0        
C4        C        0.59375        0.148148        0.5428971923076924        0        
C1        C        0.5625        0.24074099999999998        0.5428971923076924        0        
C2        C        0.59375        0.296297        0.5428971923076924        0        
C3        C        0.5625        0.314815        0.5428971923076924        0        
C4        C        0.59375        0.259259        0.5428971923076924        0        
C1        C        0.5625        0.351852        0.5428971923076924        0        
C2        C        0.59375        0.407408        0.5428971923076924        0        
C3        C        0.5625        0.42592500000000005        0.5428971923076924        0        
C4        C        0.59375        0.37037        0.5428971923076924        0        
C1        C        0.5625        0.46296300000000007        0.5428971923076924        0        
C2        C        0.59375        0.518519        0.5428971923076924        0        
C3        C        0.5625        0.537037        0.5428971923076924        0        
C4        C        0.59375        0.481481        0.5428971923076924        0        
C1        C        0.5625        0.574075        0.5428971923076924        0        
C2        C        0.59375        0.62963        0.5428971923076924        0        
C3        C        0.5625        0.648148        0.5428971923076924        0        
C4        C        0.59375        0.592592        0.5428971923076924        0        
C1        C        0.625        0.018519        0.5428971923076924        0        
C2        C        0.65625        0.074075        0.5428971923076924        0        
C3        C        0.625        0.092592        0.5428971923076924        0        
C4        C        0.65625        0.037037        0.5428971923076924        0        
C1        C        0.625        0.12963        0.5428971923076924        0        
C2        C        0.65625        0.185185        0.5428971923076924        0        
C3        C        0.625        0.203703        0.5428971923076924        0        
C4        C        0.65625        0.148148        0.5428971923076924        0        
C1        C        0.625        0.24074099999999998        0.5428971923076924        0        
C2        C        0.65625        0.296297        0.5428971923076924        0        
C3        C        0.625        0.314815        0.5428971923076924        0        
C4        C        0.65625        0.259259        0.5428971923076924        0        
C1        C        0.625        0.351852        0.5428971923076924        0        
C2        C        0.65625        0.407408        0.5428971923076924        0        
C3        C        0.625        0.42592500000000005        0.5428971923076924        0        
C4        C        0.65625        0.37037        0.5428971923076924        0        
C1        C        0.625        0.46296300000000007        0.5428971923076924        0        
C2        C        0.65625        0.518519        0.5428971923076924        0        
C3        C        0.625        0.537037        0.5428971923076924        0        
C4        C        0.65625        0.481481        0.5428971923076924        0        
C1        C        0.625        0.574075        0.5428971923076924        0        
C2        C        0.65625        0.62963        0.5428971923076924        0        
C3        C        0.625        0.648148        0.5428971923076924        0        
C4        C        0.65625        0.592592        0.5428971923076924        0        
C1        C        0.6875        0.018519        0.5428971923076924        0        
C2        C        0.71875        0.074075        0.5428971923076924        0        
C3        C        0.6875        0.092592        0.5428971923076924        0        
C4        C        0.71875        0.037037        0.5428971923076924        0        
C1        C        0.6875        0.12963        0.5428971923076924        0        
C2        C        0.71875        0.185185        0.5428971923076924        0        
C3        C        0.6875        0.203703        0.5428971923076924        0        
C4        C        0.71875        0.148148        0.5428971923076924        0        
C1        C        0.6875        0.24074099999999998        0.5428971923076924        0        
C2        C        0.71875        0.296297        0.5428971923076924        0        
C3        C        0.6875        0.314815        0.5428971923076924        0        
C4        C        0.71875        0.259259        0.5428971923076924        0        
C1        C        0.6875        0.351852        0.5428971923076924        0        
C2        C        0.71875        0.407408        0.5428971923076924        0        
C3        C        0.6875        0.42592500000000005        0.5428971923076924        0        
C4        C        0.71875        0.37037        0.5428971923076924        0        
C1        C        0.6875        0.46296300000000007        0.5428971923076924        0        
C2        C        0.71875        0.518519        0.5428971923076924        0        
C3        C        0.6875        0.537037        0.5428971923076924        0        
C4        C        0.71875        0.481481        0.5428971923076924        0        
C1        C        0.6875        0.574075        0.5428971923076924        0        
C2        C        0.71875        0.62963        0.5428971923076924        0        
C3        C        0.6875        0.648148        0.5428971923076924        0        
C4        C        0.71875        0.592592        0.5428971923076924        0        
C_FG        C        0.75        0.018519        0.5428971923076924        0.2        
C2        C        0.78125        0.074075        0.5428971923076924        0        
C3        C        0.75        0.092592        0.5428971923076924        0        
C4        C        0.78125        0.037037        0.5428971923076924        0        
C1        C        0.75        0.12963        0.5428971923076924        0        
C2        C        0.78125        0.185185        0.5428971923076924        0        
C3        C        0.75        0.203703        0.5428971923076924        0        
C4        C        0.78125        0.148148        0.5428971923076924        0        
C1        C        0.75        0.24074099999999998        0.5428971923076924        0        
C2        C        0.78125        0.296297        0.5428971923076924        0        
C_FG        C        0.75        0.314815        0.5428971923076924        0.2        
C4        C        0.78125        0.259259        0.5428971923076924        0        
C1        C        0.75        0.351852        0.5428971923076924        0        
C2        C        0.78125        0.407408        0.5428971923076924        0        
C3        C        0.75        0.42592500000000005        0.5428971923076924        0        
C4        C        0.78125        0.37037        0.5428971923076924        0        
C1        C        0.75        0.46296300000000007        0.5428971923076924        0        
C2        C        0.78125        0.518519        0.5428971923076924        0        
C3        C        0.75        0.537037        0.5428971923076924        0        
C4        C        0.78125        0.481481        0.5428971923076924        0        
C_FG        C        0.75        0.574075        0.5428971923076924        0.2        
C2        C        0.78125        0.62963        0.5428971923076924        0        
C3        C        0.75        0.648148        0.5428971923076924        0        
C4        C        0.78125        0.592592        0.5428971923076924        0        
C1        C        0.8125        0.018519        0.5428971923076924        0        
C2        C        0.84375        0.074075        0.5428971923076924        0        
C3        C        0.8125        0.092592        0.5428971923076924        0        
C4        C        0.84375        0.037037        0.5428971923076924        0        
C1        C        0.8125        0.12963        0.5428971923076924        0        
C2        C        0.84375        0.185185        0.5428971923076924        0        
C3        C        0.8125        0.203703        0.5428971923076924        0        
C4        C        0.84375        0.148148        0.5428971923076924        0        
C1        C        0.8125        0.24074099999999998        0.5428971923076924        0        
C2        C        0.84375        0.296297        0.5428971923076924        0        
C3        C        0.8125        0.314815        0.5428971923076924        0        
C4        C        0.84375        0.259259        0.5428971923076924        0        
C1        C        0.8125        0.351852        0.5428971923076924        0        
C2        C        0.84375        0.407408        0.5428971923076924        0        
C3        C        0.8125        0.42592500000000005        0.5428971923076924        0        
C4        C        0.84375        0.37037        0.5428971923076924        0        
C1        C        0.8125        0.46296300000000007        0.5428971923076924        0        
C2        C        0.84375        0.518519        0.5428971923076924        0        
C3        C        0.8125        0.537037        0.5428971923076924        0        
C4        C        0.84375        0.481481        0.5428971923076924        0        
C1        C        0.8125        0.574075        0.5428971923076924        0        
C2        C        0.84375        0.62963        0.5428971923076924        0        
C3        C        0.8125        0.648148        0.5428971923076924        0        
C4        C        0.84375        0.592592        0.5428971923076924        0        
C1        C        0.875        0.018519        0.5428971923076924        0        
C2        C        0.9062500000000001        0.074075        0.5428971923076924        0        
C3        C        0.875        0.092592        0.5428971923076924        0        
C4        C        0.9062500000000001        0.037037        0.5428971923076924        0        
C1        C        0.875        0.12963        0.5428971923076924        0        
C2        C        0.9062500000000001        0.185185        0.5428971923076924        0        
C3        C        0.875        0.203703        0.5428971923076924        0        
C4        C        0.9062500000000001        0.148148        0.5428971923076924        0        
C1        C        0.875        0.24074099999999998        0.5428971923076924        0        
C2        C        0.9062500000000001        0.296297        0.5428971923076924        0        
C3        C        0.875        0.314815        0.5428971923076924        0        
C4        C        0.9062500000000001        0.259259        0.5428971923076924        0        
C1        C        0.875        0.351852        0.5428971923076924        0        
C2        C        0.9062500000000001        0.407408        0.5428971923076924        0        
C3        C        0.875        0.42592500000000005        0.5428971923076924        0        
C4        C        0.9062500000000001        0.37037        0.5428971923076924        0        
C1        C        0.875        0.46296300000000007        0.5428971923076924        0        
C2        C        0.9062500000000001        0.518519        0.5428971923076924        0        
C3        C        0.875        0.537037        0.5428971923076924        0        
C4        C        0.9062500000000001        0.481481        0.5428971923076924        0        
C1        C        0.875        0.574075        0.5428971923076924        0        
C2        C        0.9062500000000001        0.62963        0.5428971923076924        0        
C3        C        0.875        0.648148        0.5428971923076924        0        
C4        C        0.9062500000000001        0.592592        0.5428971923076924        0        
C1        C        0.9375        0.018519        0.5428971923076924        0        
C2        C        0.9687500000000001        0.074075        0.5428971923076924        0        
C3        C        0.9375        0.092592        0.5428971923076924        0        
C4        C        0.9687500000000001        0.037037        0.5428971923076924        0        
C1        C        0.9375        0.12963        0.5428971923076924        0        
C2        C        0.9687500000000001        0.185185        0.5428971923076924        0        
C3        C        0.9375        0.203703        0.5428971923076924        0        
C4        C        0.9687500000000001        0.148148        0.5428971923076924        0        
C1        C        0.9375        0.24074099999999998        0.5428971923076924        0        
C2        C        0.9687500000000001        0.296297        0.5428971923076924        0        
C3        C        0.9375        0.314815        0.5428971923076924        0        
C4        C        0.9687500000000001        0.259259        0.5428971923076924        0        
C1        C        0.9375        0.351852        0.5428971923076924        0        
C2        C        0.9687500000000001        0.407408        0.5428971923076924        0        
C3        C        0.9375        0.42592500000000005        0.5428971923076924        0        
C4        C        0.9687500000000001        0.37037        0.5428971923076924        0        
C1        C        0.9375        0.46296300000000007        0.5428971923076924        0        
C2        C        0.9687500000000001        0.518519        0.5428971923076924        0        
C3        C        0.9375        0.537037        0.5428971923076924        0        
C4        C        0.9687500000000001        0.481481        0.5428971923076924        0        
C1        C        0.9375        0.574075        0.5428971923076924        0        
C2        C        0.9687500000000001        0.62963        0.5428971923076924        0        
C3        C        0.9375        0.648148        0.5428971923076924        0        
C4        C        0.9687500000000001        0.592592        0.5428971923076924        0        
C1        C        0.0        0.685186        0.5428971923076924        0        
C1        C        0.0625        0.685186        0.5428971923076924        0        
C1        C        0.125        0.685186        0.5428971923076924        0        
C1        C        0.1875        0.685186        0.5428971923076924        0        
C1        C        0.25        0.685186        0.5428971923076924        0        
C1        C        0.3125        0.685186        0.5428971923076924        0        
C1        C        0.375        0.685186        0.5428971923076924        0        
C1        C        0.4375        0.685186        0.5428971923076924        0        
C1        C        0.5        0.685186        0.5428971923076924        0        
C1        C        0.5625        0.685186        0.5428971923076924        0        
C1        C        0.625        0.685186        0.5428971923076924        0        
C1        C        0.6875        0.685186        0.5428971923076924        0        
C1        C        0.75        0.685186        0.5428971923076924        0        
C1        C        0.8125        0.685186        0.5428971923076924        0        
C1        C        0.875        0.685186        0.5428971923076924        0        
C1        C        0.9375        0.685186        0.5428971923076924        0        
C2        C        0.03125        0.740741        0.5428971923076924        0        
C2        C        0.09375        0.740741        0.5428971923076924        0        
C2        C        0.15625        0.740741        0.5428971923076924        0        
C2        C        0.21875        0.740741        0.5428971923076924        0        
C2        C        0.28125        0.740741        0.5428971923076924        0        
C2        C        0.34375        0.740741        0.5428971923076924        0        
C2        C        0.40625        0.740741        0.5428971923076924        0        
C2        C        0.46875        0.740741        0.5428971923076924        0        
C2        C        0.53125        0.740741        0.5428971923076924        0        
C2        C        0.59375        0.740741        0.5428971923076924        0        
C2        C        0.65625        0.740741        0.5428971923076924        0        
C2        C        0.71875        0.740741        0.5428971923076924        0        
C2        C        0.78125        0.740741        0.5428971923076924        0        
C2        C        0.84375        0.740741        0.5428971923076924        0        
C2        C        0.9062500000000001        0.740741        0.5428971923076924        0        
C2        C        0.9687500000000001        0.740741        0.5428971923076924        0        
C3        C        0.0        0.759259        0.5428971923076924        0        
C3        C        0.0625        0.759259        0.5428971923076924        0        
C3        C        0.125        0.759259        0.5428971923076924        0        
C3        C        0.1875        0.759259        0.5428971923076924        0        
C3        C        0.25        0.759259        0.5428971923076924        0        
C3        C        0.3125        0.759259        0.5428971923076924        0        
C3        C        0.375        0.759259        0.5428971923076924        0        
C3        C        0.4375        0.759259        0.5428971923076924        0        
C3        C        0.5        0.759259        0.5428971923076924        0        
C3        C        0.5625        0.759259        0.5428971923076924        0        
C3        C        0.625        0.759259        0.5428971923076924        0        
C3        C        0.6875        0.759259        0.5428971923076924        0        
C3        C        0.75        0.759259        0.5428971923076924        0        
C3        C        0.8125        0.759259        0.5428971923076924        0        
C3        C        0.875        0.759259        0.5428971923076924        0        
C3        C        0.9375        0.759259        0.5428971923076924        0        
C4        C        0.03125        0.703703        0.5428971923076924        0        
C4        C        0.09375        0.703703        0.5428971923076924        0        
C4        C        0.15625        0.703703        0.5428971923076924        0        
C4        C        0.21875        0.703703        0.5428971923076924        0        
C4        C        0.28125        0.703703        0.5428971923076924        0        
C4        C        0.34375        0.703703        0.5428971923076924        0        
C4        C        0.40625        0.703703        0.5428971923076924        0        
C4        C        0.46875        0.703703        0.5428971923076924        0        
C4        C        0.53125        0.703703        0.5428971923076924        0        
C4        C        0.59375        0.703703        0.5428971923076924        0        
C4        C        0.65625        0.703703        0.5428971923076924        0        
C4        C        0.71875        0.703703        0.5428971923076924        0        
C4        C        0.78125        0.703703        0.5428971923076924        0        
C4        C        0.84375        0.703703        0.5428971923076924        0        
C4        C        0.9062500000000001        0.703703        0.5428971923076924        0        
C4        C        0.9687500000000001        0.703703        0.5428971923076924        0        
C1        C        0.0        0.796297        0.5428971923076924        0        
C1        C        0.0625        0.796297        0.5428971923076924        0        
C1        C        0.125        0.796297        0.5428971923076924        0        
C1        C        0.1875        0.796297        0.5428971923076924        0        
C1        C        0.25        0.796297        0.5428971923076924        0        
C1        C        0.3125        0.796297        0.5428971923076924        0        
C1        C        0.375        0.796297        0.5428971923076924        0        
C1        C        0.4375        0.796297        0.5428971923076924        0        
C1        C        0.5        0.796297        0.5428971923076924        0        
C1        C        0.5625        0.796297        0.5428971923076924        0        
C1        C        0.625        0.796297        0.5428971923076924        0        
C1        C        0.6875        0.796297        0.5428971923076924        0        
C1        C        0.75        0.796297        0.5428971923076924        0        
C1        C        0.8125        0.796297        0.5428971923076924        0        
C1        C        0.875        0.796297        0.5428971923076924        0        
C1        C        0.9375        0.796297        0.5428971923076924        0        
C2        C        0.03125        0.851852        0.5428971923076924        0        
C2        C        0.09375        0.851852        0.5428971923076924        0        
C2        C        0.15625        0.851852        0.5428971923076924        0        
C2        C        0.21875        0.851852        0.5428971923076924        0        
C2        C        0.28125        0.851852        0.5428971923076924        0        
C2        C        0.34375        0.851852        0.5428971923076924        0        
C2        C        0.40625        0.851852        0.5428971923076924        0        
C2        C        0.46875        0.851852        0.5428971923076924        0        
C2        C        0.53125        0.851852        0.5428971923076924        0        
C2        C        0.59375        0.851852        0.5428971923076924        0        
C2        C        0.65625        0.851852        0.5428971923076924        0        
C2        C        0.71875        0.851852        0.5428971923076924        0        
C2        C        0.78125        0.851852        0.5428971923076924        0        
C2        C        0.84375        0.851852        0.5428971923076924        0        
C2        C        0.9062500000000001        0.851852        0.5428971923076924        0        
C2        C        0.9687500000000001        0.851852        0.5428971923076924        0        
C_FG        C        0.0        0.87037        0.5428971923076924        0.2        
C3        C        0.0625        0.87037        0.5428971923076924        0        
C3        C        0.125        0.87037        0.5428971923076924        0        
C3        C        0.1875        0.87037        0.5428971923076924        0        
C_FG        C        0.25        0.87037        0.5428971923076924        0.2        
C3        C        0.3125        0.87037        0.5428971923076924        0        
C3        C        0.375        0.87037        0.5428971923076924        0        
C3        C        0.4375        0.87037        0.5428971923076924        0        
C_FG        C        0.5        0.87037        0.5428971923076924        0.2        
C3        C        0.5625        0.87037        0.5428971923076924        0        
C3        C        0.625        0.87037        0.5428971923076924        0        
C3        C        0.6875        0.87037        0.5428971923076924        0        
C_FG        C        0.75        0.87037        0.5428971923076924        0.2        
C3        C        0.8125        0.87037        0.5428971923076924        0        
C3        C        0.875        0.87037        0.5428971923076924        0        
C3        C        0.9375        0.87037        0.5428971923076924        0        
C4        C        0.03125        0.814814        0.5428971923076924        0        
C4        C        0.09375        0.814814        0.5428971923076924        0        
C4        C        0.15625        0.814814        0.5428971923076924        0        
C4        C        0.21875        0.814814        0.5428971923076924        0        
C4        C        0.28125        0.814814        0.5428971923076924        0        
C4        C        0.34375        0.814814        0.5428971923076924        0        
C4        C        0.40625        0.814814        0.5428971923076924        0        
C4        C        0.46875        0.814814        0.5428971923076924        0        
C4        C        0.53125        0.814814        0.5428971923076924        0        
C4        C        0.59375        0.814814        0.5428971923076924        0        
C4        C        0.65625        0.814814        0.5428971923076924        0        
C4        C        0.71875        0.814814        0.5428971923076924        0        
C4        C        0.78125        0.814814        0.5428971923076924        0        
C4        C        0.84375        0.814814        0.5428971923076924        0        
C4        C        0.9062500000000001        0.814814        0.5428971923076924        0        
C4        C        0.9687500000000001        0.814814        0.5428971923076924        0        
C1        C        0.0        0.907408        0.5428971923076924        0        
C1        C        0.0625        0.907408        0.5428971923076924        0        
C1        C        0.125        0.907408        0.5428971923076924        0        
C1        C        0.1875        0.907408        0.5428971923076924        0        
C1        C        0.25        0.907408        0.5428971923076924        0        
C1        C        0.3125        0.907408        0.5428971923076924        0        
C1        C        0.375        0.907408        0.5428971923076924        0        
C1        C        0.4375        0.907408        0.5428971923076924        0        
C1        C        0.5        0.907408        0.5428971923076924        0        
C1        C        0.5625        0.907408        0.5428971923076924        0        
C1        C        0.625        0.907408        0.5428971923076924        0        
C1        C        0.6875        0.907408        0.5428971923076924        0        
C1        C        0.75        0.907408        0.5428971923076924        0        
C1        C        0.8125        0.907408        0.5428971923076924        0        
C1        C        0.875        0.907408        0.5428971923076924        0        
C1        C        0.9375        0.907408        0.5428971923076924        0        
C2        C        0.03125        0.962963        0.5428971923076924        0        
C2        C        0.09375        0.962963        0.5428971923076924        0        
C2        C        0.15625        0.962963        0.5428971923076924        0        
C2        C        0.21875        0.962963        0.5428971923076924        0        
C2        C        0.28125        0.962963        0.5428971923076924        0        
C2        C        0.34375        0.962963        0.5428971923076924        0        
C2        C        0.40625        0.962963        0.5428971923076924        0        
C2        C        0.46875        0.962963        0.5428971923076924        0        
C2        C        0.53125        0.962963        0.5428971923076924        0        
C2        C        0.59375        0.962963        0.5428971923076924        0        
C2        C        0.65625        0.962963        0.5428971923076924        0        
C2        C        0.71875        0.962963        0.5428971923076924        0        
C2        C        0.78125        0.962963        0.5428971923076924        0        
C2        C        0.84375        0.962963        0.5428971923076924        0        
C2        C        0.9062500000000001        0.962963        0.5428971923076924        0        
C2        C        0.9687500000000001        0.962963        0.5428971923076924        0        
C3        C        0.0        0.9814809999999999        0.5428971923076924        0        
C3        C        0.0625        0.9814809999999999        0.5428971923076924        0        
C3        C        0.125        0.9814809999999999        0.5428971923076924        0        
C3        C        0.1875        0.9814809999999999        0.5428971923076924        0        
C3        C        0.25        0.9814809999999999        0.5428971923076924        0        
C3        C        0.3125        0.9814809999999999        0.5428971923076924        0        
C3        C        0.375        0.9814809999999999        0.5428971923076924        0        
C3        C        0.4375        0.9814809999999999        0.5428971923076924        0        
C3        C        0.5        0.9814809999999999        0.5428971923076924        0        
C3        C        0.5625        0.9814809999999999        0.5428971923076924        0        
C3        C        0.625        0.9814809999999999        0.5428971923076924        0        
C3        C        0.6875        0.9814809999999999        0.5428971923076924        0        
C3        C        0.75        0.9814809999999999        0.5428971923076924        0        
C3        C        0.8125        0.9814809999999999        0.5428971923076924        0        
C3        C        0.875        0.9814809999999999        0.5428971923076924        0        
C3        C        0.9375        0.9814809999999999        0.5428971923076924        0        
C4        C        0.03125        0.925925        0.5428971923076924        0        
C4        C        0.09375        0.925925        0.5428971923076924        0        
C4        C        0.15625        0.925925        0.5428971923076924        0        
C4        C        0.21875        0.925925        0.5428971923076924        0        
C4        C        0.28125        0.925925        0.5428971923076924        0        
C4        C        0.34375        0.925925        0.5428971923076924        0        
C4        C        0.40625        0.925925        0.5428971923076924        0        
C4        C        0.46875        0.925925        0.5428971923076924        0        
C4        C        0.53125        0.925925        0.5428971923076924        0        
C4        C        0.59375        0.925925        0.5428971923076924        0        
C4        C        0.65625        0.925925        0.5428971923076924        0        
C4        C        0.71875        0.925925        0.5428971923076924        0        
C4        C        0.78125        0.925925        0.5428971923076924        0        
C4        C        0.84375        0.925925        0.5428971923076924        0        
C4        C        0.9062500000000001        0.925925        0.5428971923076924        0        
C4        C        0.9687500000000001        0.925925        0.5428971923076924        0        
O_OH        O        0.0        0.018519        0.021551217948717945        -0.64        
O_OH        O        0.0        0.314815        0.021551217948717945        -0.64        
O_OH        O        0.0        0.574075        0.021551217948717945        -0.64        
O_OH        O        0.25        0.018519        0.021551217948717945        -0.64        
O_OH        O        0.25        0.314815        0.021551217948717945        -0.64        
O_OH        O        0.25        0.574075        0.021551217948717945        -0.64        
O_OH        O        0.5        0.018519        0.021551217948717945        -0.64        
O_OH        O        0.5        0.314815        0.021551217948717945        -0.64        
O_OH        O        0.5        0.574075        0.021551217948717945        -0.64        
O_OH        O        0.75        0.018519        0.021551217948717945        -0.64        
O_OH        O        0.75        0.314815        0.021551217948717945        -0.64        
O_OH        O        0.75        0.574075        0.021551217948717945        -0.64        
O_OH        O        0.0        0.87037        0.021551217948717945        -0.64        
O_OH        O        0.25        0.87037        0.021551217948717945        -0.64        
O_OH        O        0.5        0.87037        0.021551217948717945        -0.64        
O_OH        O        0.75        0.87037        0.021551217948717945        -0.64        
O_OH        O        0.0        0.018519        0.6347563461538461        -0.64        
O_OH        O        0.0        0.314815        0.6347563461538461        -0.64        
O_OH        O        0.0        0.574075        0.6347563461538461        -0.64        
O_OH        O        0.25        0.018519        0.6347563461538461        -0.64        
O_OH        O        0.25        0.314815        0.6347563461538461        -0.64        
O_OH        O        0.25        0.574075        0.6347563461538461        -0.64        
O_OH        O        0.5        0.018519        0.6347563461538461        -0.64        
O_OH        O        0.5        0.314815        0.6347563461538461        -0.64        
O_OH        O        0.5        0.574075        0.6347563461538461        -0.64        
O_OH        O        0.75        0.018519        0.6347563461538461        -0.64        
O_OH        O        0.75        0.314815        0.6347563461538461        -0.64        
O_OH        O        0.75        0.574075        0.6347563461538461        -0.64        
O_OH        O        0.0        0.87037        0.6347563461538461        -0.64        
O_OH        O        0.25        0.87037        0.6347563461538461        -0.64        
O_OH        O        0.5        0.87037        0.6347563461538461        -0.64        
O_OH        O        0.75        0.87037        0.6347563461538461        -0.64        
H_OH        H        -0.02204505525664022        0.024673477573839083        0.0        0.44        
H_OH        H        -0.004427948343700568        0.3378237051106549        0.0        0.44        
H_OH        H        -0.020351972261240185        0.5847300202155942        0.0        0.44        
H_OH        H        0.25211877099982516        0.041871368672724674        0.0        0.44        
H_OH        H        0.2727896004028644        0.31645706543513863        0.0        0.44        
H_OH        H        0.2408078423130595        0.5955462114875444        0.0        0.44        
H_OH        H        0.5073603815979714        0.0407218878381975        0.0        0.44        
H_OH        H        0.4854597890720054        0.3329049927518493        0.0        0.44        
H_OH        H        0.49010822107277285        0.5952159918294635        0.0        0.44        
H_OH        H        0.7514925716142823        0.04192234313101072        0.0        0.44        
H_OH        H        0.7445421617656187        0.3375893343841651        0.0        0.44        
H_OH        H        0.7345930320241932        0.5913923732956781        0.0        0.44        
H_OH        H        0.009987450375797785        0.891463532647671        0.0        0.44        
H_OH        H        0.2276278455383322        0.8751203078691612        0.0        0.44        
H_OH        H        0.48085459436003314        0.8831666832479388        0.0        0.44        
H_OH        H        0.7678683873711225        0.884984063472134        0.0        0.44        
H_OH        H        -0.01576826436979165        0.03549017076063466        0.6563075641025641        0.44        
H_OH        H        -0.014497242067159228        0.3329413017536198        0.6563075641025641        0.44        
H_OH        H        0.01983964639335868        0.5857038802296028        0.6563075641025641        0.44        
H_OH        H        0.22741423699689514        0.022046641399837145        0.6563075641025641        0.44        
H_OH        H        0.22773812777784455        0.32008312658890675        0.6563075641025641        0.44        
H_OH        H        0.22894028680994397        0.5831656822243343        0.6563075641025641        0.44        
H_OH        H        0.4781747854373912        0.025450237639751457        0.6563075641025641        0.44        
H_OH        H        0.521186696723762        0.3235892046738509        0.6563075641025641        0.44        
H_OH        H        0.4798659138877467        0.58515770807897        0.6563075641025641        0.44        
H_OH        H        0.7316846687422525        0.0325378025956291        0.6563075641025641        0.44        
H_OH        H        0.7494203247065436        0.3382608996741844        0.6563075641025641        0.44        
H_OH        H        0.751301157660958        0.5974903808527774        0.6563075641025641        0.44        
H_OH        H        0.006196552543037706        0.8929442522580618        0.6563075641025641        0.44        
H_OH        H        0.27282092957745546        0.871461052710024        0.6563075641025641        0.44        
H_OH        H        0.47812850691663383        0.8771457513562142        0.6563075641025641        0.44        
H_OH        H        0.7434048197971904        0.8928249059630288        0.6563075641025641        0.44        
