data_graphite_ortho

_audit_creation_method RASPA-1.0
_audit_creation_date 2012-2-3
_audit_author_name 'David Dubbeldam'

_cell_length_a    39.36    
_cell_length_b    38.34    
_cell_length_c    15.6    
_cell_angle_alpha 90
_cell_angle_beta  90
_cell_angle_gamma 90
_cell_volume      23541.37      

_symmetry_cell_setting          triclinic
_symmetry_space_group_name_Hall 'P 1'
_symmetry_space_group_name_H-M  'P 1'
_symmetry_Int_Tables_number     1

_symmetry_equiv_pos_as_xyz 'x,y,z'

loop_
_atom_site_label
_atom_site_type_symbol
_atom_site_fract_x
_atom_site_fract_y
_atom_site_fract_z
_atom_site_charge
C_Base_CO        C        0.0        0.018519        0.14882942307692307        0.5        
C_Base_CO        C        0.03125        0.074075        0.14882942307692307        0.5        
C_Base_CO        C        0.0        0.092592        0.14882942307692307        0.5        
C_Base_CO        C        0.03125        0.037037        0.14882942307692307        0.5        
C_Base_CO        C        0.0        0.12963        0.14882942307692307        0.5        
C_Base_COOH        C        0.03125        0.185185        0.14882942307692307        0.08        
C_Base_COOH        C        0.0        0.203703        0.14882942307692307        0.08        
C_Base_COOH        C        0.03125        0.148148        0.14882942307692307        0.08        
C_Base_COOH        C        0.0        0.24074099999999998        0.14882942307692307        0.08        
C_Base_CO        C        0.03125        0.296297        0.14882942307692307        0.5        
C_Base_CO        C        0.0        0.314815        0.14882942307692307        0.5        
C_Base_COOH        C        0.03125        0.259259        0.14882942307692307        0.08        
C_Base_CO        C        0.0        0.351852        0.14882942307692307        0.5        
C_Base_COOH        C        0.03125        0.407408        0.14882942307692307        0.08        
C_Base_CO        C        0.0        0.42592500000000005        0.14882942307692307        0.5        
C_Base_CO        C        0.03125        0.37037        0.14882942307692307        0.5        
C_Base_COOH        C        0.0        0.46296300000000007        0.14882942307692307        0.08        
C_Base_COOH        C        0.03125        0.518519        0.14882942307692307        0.08        
C_Base_COOH        C        0.0        0.537037        0.14882942307692307        0.08        
C_Base_COOH        C        0.03125        0.481481        0.14882942307692307        0.08        
C_Base_CO        C        0.0        0.574075        0.14882942307692307        0.5        
C_Base_COOH        C        0.03125        0.62963        0.14882942307692307        0.08        
C_Base_CO        C        0.0        0.648148        0.14882942307692307        0.5        
C_Base_COOH        C        0.03125        0.592592        0.14882942307692307        0.08        
C_Base_CO        C        0.0625        0.018519        0.14882942307692307        0.5        
C_Base_CO        C        0.09375        0.074075        0.14882942307692307        0.5        
C_Base_CO        C        0.0625        0.092592        0.14882942307692307        0.5        
C_Base_CO        C        0.09375        0.037037        0.14882942307692307        0.5        
C_Base_CO        C        0.0625        0.12963        0.14882942307692307        0.5        
C_Base_COOH        C        0.09375        0.185185        0.14882942307692307        0.08        
C_Base_COOH        C        0.0625        0.203703        0.14882942307692307        0.08        
C_Base_COOH        C        0.09375        0.148148        0.14882942307692307        0.08        
C_Base_COOH        C        0.0625        0.24074099999999998        0.14882942307692307        0.08        
C_Base_CO        C        0.09375        0.296297        0.14882942307692307        0.5        
C_Base_CO        C        0.0625        0.314815        0.14882942307692307        0.5        
C_Base_COOH        C        0.09375        0.259259        0.14882942307692307        0.08        
C_Base_CO        C        0.0625        0.351852        0.14882942307692307        0.5        
C_Base_COOH        C        0.09375        0.407408        0.14882942307692307        0.08        
C_Base_CO        C        0.0625        0.42592500000000005        0.14882942307692307        0.5        
C_Base_CO        C        0.09375        0.37037        0.14882942307692307        0.5        
C_Base_COOH        C        0.0625        0.46296300000000007        0.14882942307692307        0.08        
C_Base_COOH        C        0.09375        0.518519        0.14882942307692307        0.08        
C_Base_COOH        C        0.0625        0.537037        0.14882942307692307        0.08        
C_Base_COOH        C        0.09375        0.481481        0.14882942307692307        0.08        
C_Base_CO        C        0.0625        0.574075        0.14882942307692307        0.5        
C_Base_COOH        C        0.09375        0.62963        0.14882942307692307        0.08        
C_Base_CO        C        0.0625        0.648148        0.14882942307692307        0.5        
C_Base_COOH        C        0.09375        0.592592        0.14882942307692307        0.08        
C1        C        0.125        0.018519        0.14882942307692307        0        
C2        C        0.15625        0.074075        0.14882942307692307        0        
C3        C        0.125        0.092592        0.14882942307692307        0        
C4        C        0.15625        0.037037        0.14882942307692307        0        
C1        C        0.125        0.12963        0.14882942307692307        0        
C2        C        0.15625        0.185185        0.14882942307692307        0        
C3        C        0.125        0.203703        0.14882942307692307        0        
C4        C        0.15625        0.148148        0.14882942307692307        0        
C1        C        0.125        0.24074099999999998        0.14882942307692307        0        
C2        C        0.15625        0.296297        0.14882942307692307        0        
C3        C        0.125        0.314815        0.14882942307692307        0        
C4        C        0.15625        0.259259        0.14882942307692307        0        
C1        C        0.125        0.351852        0.14882942307692307        0        
C2        C        0.15625        0.407408        0.14882942307692307        0        
C3        C        0.125        0.42592500000000005        0.14882942307692307        0        
C4        C        0.15625        0.37037        0.14882942307692307        0        
C1        C        0.125        0.46296300000000007        0.14882942307692307        0        
C2        C        0.15625        0.518519        0.14882942307692307        0        
C3        C        0.125        0.537037        0.14882942307692307        0        
C4        C        0.15625        0.481481        0.14882942307692307        0        
C1        C        0.125        0.574075        0.14882942307692307        0        
C2        C        0.15625        0.62963        0.14882942307692307        0        
C3        C        0.125        0.648148        0.14882942307692307        0        
C4        C        0.15625        0.592592        0.14882942307692307        0        
C1        C        0.1875        0.018519        0.14882942307692307        0        
C2        C        0.21875        0.074075        0.14882942307692307        0        
C3        C        0.1875        0.092592        0.14882942307692307        0        
C4        C        0.21875        0.037037        0.14882942307692307        0        
C1        C        0.1875        0.12963        0.14882942307692307        0        
C2        C        0.21875        0.185185        0.14882942307692307        0        
C3        C        0.1875        0.203703        0.14882942307692307        0        
C4        C        0.21875        0.148148        0.14882942307692307        0        
C1        C        0.1875        0.24074099999999998        0.14882942307692307        0        
C2        C        0.21875        0.296297        0.14882942307692307        0        
C3        C        0.1875        0.314815        0.14882942307692307        0        
C4        C        0.21875        0.259259        0.14882942307692307        0        
C1        C        0.1875        0.351852        0.14882942307692307        0        
C2        C        0.21875        0.407408        0.14882942307692307        0        
C3        C        0.1875        0.42592500000000005        0.14882942307692307        0        
C4        C        0.21875        0.37037        0.14882942307692307        0        
C1        C        0.1875        0.46296300000000007        0.14882942307692307        0        
C2        C        0.21875        0.518519        0.14882942307692307        0        
C3        C        0.1875        0.537037        0.14882942307692307        0        
C4        C        0.21875        0.481481        0.14882942307692307        0        
C1        C        0.1875        0.574075        0.14882942307692307        0        
C2        C        0.21875        0.62963        0.14882942307692307        0        
C3        C        0.1875        0.648148        0.14882942307692307        0        
C4        C        0.21875        0.592592        0.14882942307692307        0        
C1        C        0.25        0.018519        0.14882942307692307        0        
C2        C        0.28125        0.074075        0.14882942307692307        0        
C3        C        0.25        0.092592        0.14882942307692307        0        
C4        C        0.28125        0.037037        0.14882942307692307        0        
C1        C        0.25        0.12963        0.14882942307692307        0        
C2        C        0.28125        0.185185        0.14882942307692307        0        
C3        C        0.25        0.203703        0.14882942307692307        0        
C4        C        0.28125        0.148148        0.14882942307692307        0        
C1        C        0.25        0.24074099999999998        0.14882942307692307        0        
C2        C        0.28125        0.296297        0.14882942307692307        0        
C3        C        0.25        0.314815        0.14882942307692307        0        
C4        C        0.28125        0.259259        0.14882942307692307        0        
C1        C        0.25        0.351852        0.14882942307692307        0        
C2        C        0.28125        0.407408        0.14882942307692307        0        
C3        C        0.25        0.42592500000000005        0.14882942307692307        0        
C4        C        0.28125        0.37037        0.14882942307692307        0        
C1        C        0.25        0.46296300000000007        0.14882942307692307        0        
C2        C        0.28125        0.518519        0.14882942307692307        0        
C3        C        0.25        0.537037        0.14882942307692307        0        
C4        C        0.28125        0.481481        0.14882942307692307        0        
C1        C        0.25        0.574075        0.14882942307692307        0        
C2        C        0.28125        0.62963        0.14882942307692307        0        
C3        C        0.25        0.648148        0.14882942307692307        0        
C4        C        0.28125        0.592592        0.14882942307692307        0        
C1        C        0.3125        0.018519        0.14882942307692307        0        
C2        C        0.34375        0.074075        0.14882942307692307        0        
C3        C        0.3125        0.092592        0.14882942307692307        0        
C4        C        0.34375        0.037037        0.14882942307692307        0        
C1        C        0.3125        0.12963        0.14882942307692307        0        
C2        C        0.34375        0.185185        0.14882942307692307        0        
C3        C        0.3125        0.203703        0.14882942307692307        0        
C4        C        0.34375        0.148148        0.14882942307692307        0        
C1        C        0.3125        0.24074099999999998        0.14882942307692307        0        
C2        C        0.34375        0.296297        0.14882942307692307        0        
C3        C        0.3125        0.314815        0.14882942307692307        0        
C4        C        0.34375        0.259259        0.14882942307692307        0        
C1        C        0.3125        0.351852        0.14882942307692307        0        
C2        C        0.34375        0.407408        0.14882942307692307        0        
C3        C        0.3125        0.42592500000000005        0.14882942307692307        0        
C4        C        0.34375        0.37037        0.14882942307692307        0        
C1        C        0.3125        0.46296300000000007        0.14882942307692307        0        
C2        C        0.34375        0.518519        0.14882942307692307        0        
C3        C        0.3125        0.537037        0.14882942307692307        0        
C4        C        0.34375        0.481481        0.14882942307692307        0        
C1        C        0.3125        0.574075        0.14882942307692307        0        
C2        C        0.34375        0.62963        0.14882942307692307        0        
C3        C        0.3125        0.648148        0.14882942307692307        0        
C4        C        0.34375        0.592592        0.14882942307692307        0        
C1        C        0.375        0.018519        0.14882942307692307        0        
C2        C        0.40625        0.074075        0.14882942307692307        0        
C3        C        0.375        0.092592        0.14882942307692307        0        
C4        C        0.40625        0.037037        0.14882942307692307        0        
C1        C        0.375        0.12963        0.14882942307692307        0        
C2        C        0.40625        0.185185        0.14882942307692307        0        
C3        C        0.375        0.203703        0.14882942307692307        0        
C4        C        0.40625        0.148148        0.14882942307692307        0        
C1        C        0.375        0.24074099999999998        0.14882942307692307        0        
C2        C        0.40625        0.296297        0.14882942307692307        0        
C3        C        0.375        0.314815        0.14882942307692307        0        
C4        C        0.40625        0.259259        0.14882942307692307        0        
C1        C        0.375        0.351852        0.14882942307692307        0        
C2        C        0.40625        0.407408        0.14882942307692307        0        
C3        C        0.375        0.42592500000000005        0.14882942307692307        0        
C4        C        0.40625        0.37037        0.14882942307692307        0        
C1        C        0.375        0.46296300000000007        0.14882942307692307        0        
C2        C        0.40625        0.518519        0.14882942307692307        0        
C3        C        0.375        0.537037        0.14882942307692307        0        
C4        C        0.40625        0.481481        0.14882942307692307        0        
C1        C        0.375        0.574075        0.14882942307692307        0        
C2        C        0.40625        0.62963        0.14882942307692307        0        
C3        C        0.375        0.648148        0.14882942307692307        0        
C4        C        0.40625        0.592592        0.14882942307692307        0        
C1        C        0.4375        0.018519        0.14882942307692307        0        
C2        C        0.46875        0.074075        0.14882942307692307        0        
C3        C        0.4375        0.092592        0.14882942307692307        0        
C4        C        0.46875        0.037037        0.14882942307692307        0        
C1        C        0.4375        0.12963        0.14882942307692307        0        
C2        C        0.46875        0.185185        0.14882942307692307        0        
C3        C        0.4375        0.203703        0.14882942307692307        0        
C4        C        0.46875        0.148148        0.14882942307692307        0        
C1        C        0.4375        0.24074099999999998        0.14882942307692307        0        
C2        C        0.46875        0.296297        0.14882942307692307        0        
C3        C        0.4375        0.314815        0.14882942307692307        0        
C4        C        0.46875        0.259259        0.14882942307692307        0        
C1        C        0.4375        0.351852        0.14882942307692307        0        
C2        C        0.46875        0.407408        0.14882942307692307        0        
C3        C        0.4375        0.42592500000000005        0.14882942307692307        0        
C4        C        0.46875        0.37037        0.14882942307692307        0        
C1        C        0.4375        0.46296300000000007        0.14882942307692307        0        
C2        C        0.46875        0.518519        0.14882942307692307        0        
C3        C        0.4375        0.537037        0.14882942307692307        0        
C4        C        0.46875        0.481481        0.14882942307692307        0        
C1        C        0.4375        0.574075        0.14882942307692307        0        
C2        C        0.46875        0.62963        0.14882942307692307        0        
C3        C        0.4375        0.648148        0.14882942307692307        0        
C4        C        0.46875        0.592592        0.14882942307692307        0        
C1        C        0.5        0.018519        0.14882942307692307        0        
C2        C        0.53125        0.074075        0.14882942307692307        0        
C3        C        0.5        0.092592        0.14882942307692307        0        
C4        C        0.53125        0.037037        0.14882942307692307        0        
C1        C        0.5        0.12963        0.14882942307692307        0        
C2        C        0.53125        0.185185        0.14882942307692307        0        
C3        C        0.5        0.203703        0.14882942307692307        0        
C4        C        0.53125        0.148148        0.14882942307692307        0        
C1        C        0.5        0.24074099999999998        0.14882942307692307        0        
C2        C        0.53125        0.296297        0.14882942307692307        0        
C3        C        0.5        0.314815        0.14882942307692307        0        
C4        C        0.53125        0.259259        0.14882942307692307        0        
C1        C        0.5        0.351852        0.14882942307692307        0        
C2        C        0.53125        0.407408        0.14882942307692307        0        
C3        C        0.5        0.42592500000000005        0.14882942307692307        0        
C4        C        0.53125        0.37037        0.14882942307692307        0        
C1        C        0.5        0.46296300000000007        0.14882942307692307        0        
C2        C        0.53125        0.518519        0.14882942307692307        0        
C3        C        0.5        0.537037        0.14882942307692307        0        
C4        C        0.53125        0.481481        0.14882942307692307        0        
C1        C        0.5        0.574075        0.14882942307692307        0        
C2        C        0.53125        0.62963        0.14882942307692307        0        
C3        C        0.5        0.648148        0.14882942307692307        0        
C4        C        0.53125        0.592592        0.14882942307692307        0        
C1        C        0.5625        0.018519        0.14882942307692307        0        
C2        C        0.59375        0.074075        0.14882942307692307        0        
C3        C        0.5625        0.092592        0.14882942307692307        0        
C4        C        0.59375        0.037037        0.14882942307692307        0        
C1        C        0.5625        0.12963        0.14882942307692307        0        
C2        C        0.59375        0.185185        0.14882942307692307        0        
C3        C        0.5625        0.203703        0.14882942307692307        0        
C4        C        0.59375        0.148148        0.14882942307692307        0        
C1        C        0.5625        0.24074099999999998        0.14882942307692307        0        
C2        C        0.59375        0.296297        0.14882942307692307        0        
C3        C        0.5625        0.314815        0.14882942307692307        0        
C4        C        0.59375        0.259259        0.14882942307692307        0        
C1        C        0.5625        0.351852        0.14882942307692307        0        
C2        C        0.59375        0.407408        0.14882942307692307        0        
C3        C        0.5625        0.42592500000000005        0.14882942307692307        0        
C4        C        0.59375        0.37037        0.14882942307692307        0        
C1        C        0.5625        0.46296300000000007        0.14882942307692307        0        
C2        C        0.59375        0.518519        0.14882942307692307        0        
C3        C        0.5625        0.537037        0.14882942307692307        0        
C4        C        0.59375        0.481481        0.14882942307692307        0        
C1        C        0.5625        0.574075        0.14882942307692307        0        
C2        C        0.59375        0.62963        0.14882942307692307        0        
C3        C        0.5625        0.648148        0.14882942307692307        0        
C4        C        0.59375        0.592592        0.14882942307692307        0        
C1        C        0.625        0.018519        0.14882942307692307        0        
C2        C        0.65625        0.074075        0.14882942307692307        0        
C3        C        0.625        0.092592        0.14882942307692307        0        
C4        C        0.65625        0.037037        0.14882942307692307        0        
C1        C        0.625        0.12963        0.14882942307692307        0        
C2        C        0.65625        0.185185        0.14882942307692307        0        
C3        C        0.625        0.203703        0.14882942307692307        0        
C4        C        0.65625        0.148148        0.14882942307692307        0        
C1        C        0.625        0.24074099999999998        0.14882942307692307        0        
C2        C        0.65625        0.296297        0.14882942307692307        0        
C3        C        0.625        0.314815        0.14882942307692307        0        
C4        C        0.65625        0.259259        0.14882942307692307        0        
C1        C        0.625        0.351852        0.14882942307692307        0        
C2        C        0.65625        0.407408        0.14882942307692307        0        
C3        C        0.625        0.42592500000000005        0.14882942307692307        0        
C4        C        0.65625        0.37037        0.14882942307692307        0        
C1        C        0.625        0.46296300000000007        0.14882942307692307        0        
C2        C        0.65625        0.518519        0.14882942307692307        0        
C3        C        0.625        0.537037        0.14882942307692307        0        
C4        C        0.65625        0.481481        0.14882942307692307        0        
C1        C        0.625        0.574075        0.14882942307692307        0        
C2        C        0.65625        0.62963        0.14882942307692307        0        
C3        C        0.625        0.648148        0.14882942307692307        0        
C4        C        0.65625        0.592592        0.14882942307692307        0        
C1        C        0.6875        0.018519        0.14882942307692307        0        
C2        C        0.71875        0.074075        0.14882942307692307        0        
C3        C        0.6875        0.092592        0.14882942307692307        0        
C4        C        0.71875        0.037037        0.14882942307692307        0        
C1        C        0.6875        0.12963        0.14882942307692307        0        
C2        C        0.71875        0.185185        0.14882942307692307        0        
C3        C        0.6875        0.203703        0.14882942307692307        0        
C4        C        0.71875        0.148148        0.14882942307692307        0        
C1        C        0.6875        0.24074099999999998        0.14882942307692307        0        
C2        C        0.71875        0.296297        0.14882942307692307        0        
C3        C        0.6875        0.314815        0.14882942307692307        0        
C4        C        0.71875        0.259259        0.14882942307692307        0        
C1        C        0.6875        0.351852        0.14882942307692307        0        
C2        C        0.71875        0.407408        0.14882942307692307        0        
C3        C        0.6875        0.42592500000000005        0.14882942307692307        0        
C4        C        0.71875        0.37037        0.14882942307692307        0        
C1        C        0.6875        0.46296300000000007        0.14882942307692307        0        
C2        C        0.71875        0.518519        0.14882942307692307        0        
C3        C        0.6875        0.537037        0.14882942307692307        0        
C4        C        0.71875        0.481481        0.14882942307692307        0        
C1        C        0.6875        0.574075        0.14882942307692307        0        
C2        C        0.71875        0.62963        0.14882942307692307        0        
C3        C        0.6875        0.648148        0.14882942307692307        0        
C4        C        0.71875        0.592592        0.14882942307692307        0        
C1        C        0.75        0.018519        0.14882942307692307        0        
C2        C        0.78125        0.074075        0.14882942307692307        0        
C3        C        0.75        0.092592        0.14882942307692307        0        
C4        C        0.78125        0.037037        0.14882942307692307        0        
C1        C        0.75        0.12963        0.14882942307692307        0        
C2        C        0.78125        0.185185        0.14882942307692307        0        
C3        C        0.75        0.203703        0.14882942307692307        0        
C4        C        0.78125        0.148148        0.14882942307692307        0        
C1        C        0.75        0.24074099999999998        0.14882942307692307        0        
C2        C        0.78125        0.296297        0.14882942307692307        0        
C3        C        0.75        0.314815        0.14882942307692307        0        
C4        C        0.78125        0.259259        0.14882942307692307        0        
C1        C        0.75        0.351852        0.14882942307692307        0        
C2        C        0.78125        0.407408        0.14882942307692307        0        
C3        C        0.75        0.42592500000000005        0.14882942307692307        0        
C4        C        0.78125        0.37037        0.14882942307692307        0        
C1        C        0.75        0.46296300000000007        0.14882942307692307        0        
C2        C        0.78125        0.518519        0.14882942307692307        0        
C3        C        0.75        0.537037        0.14882942307692307        0        
C4        C        0.78125        0.481481        0.14882942307692307        0        
C1        C        0.75        0.574075        0.14882942307692307        0        
C2        C        0.78125        0.62963        0.14882942307692307        0        
C3        C        0.75        0.648148        0.14882942307692307        0        
C4        C        0.78125        0.592592        0.14882942307692307        0        
C1        C        0.8125        0.018519        0.14882942307692307        0        
C2        C        0.84375        0.074075        0.14882942307692307        0        
C3        C        0.8125        0.092592        0.14882942307692307        0        
C4        C        0.84375        0.037037        0.14882942307692307        0        
C1        C        0.8125        0.12963        0.14882942307692307        0        
C2        C        0.84375        0.185185        0.14882942307692307        0        
C3        C        0.8125        0.203703        0.14882942307692307        0        
C4        C        0.84375        0.148148        0.14882942307692307        0        
C1        C        0.8125        0.24074099999999998        0.14882942307692307        0        
C2        C        0.84375        0.296297        0.14882942307692307        0        
C3        C        0.8125        0.314815        0.14882942307692307        0        
C4        C        0.84375        0.259259        0.14882942307692307        0        
C1        C        0.8125        0.351852        0.14882942307692307        0        
C2        C        0.84375        0.407408        0.14882942307692307        0        
C3        C        0.8125        0.42592500000000005        0.14882942307692307        0        
C4        C        0.84375        0.37037        0.14882942307692307        0        
C1        C        0.8125        0.46296300000000007        0.14882942307692307        0        
C2        C        0.84375        0.518519        0.14882942307692307        0        
C3        C        0.8125        0.537037        0.14882942307692307        0        
C4        C        0.84375        0.481481        0.14882942307692307        0        
C1        C        0.8125        0.574075        0.14882942307692307        0        
C2        C        0.84375        0.62963        0.14882942307692307        0        
C3        C        0.8125        0.648148        0.14882942307692307        0        
C4        C        0.84375        0.592592        0.14882942307692307        0        
C1        C        0.875        0.018519        0.14882942307692307        0        
C2        C        0.9062500000000001        0.074075        0.14882942307692307        0        
C3        C        0.875        0.092592        0.14882942307692307        0        
C4        C        0.9062500000000001        0.037037        0.14882942307692307        0        
C1        C        0.875        0.12963        0.14882942307692307        0        
C2        C        0.9062500000000001        0.185185        0.14882942307692307        0        
C3        C        0.875        0.203703        0.14882942307692307        0        
C4        C        0.9062500000000001        0.148148        0.14882942307692307        0        
C1        C        0.875        0.24074099999999998        0.14882942307692307        0        
C2        C        0.9062500000000001        0.296297        0.14882942307692307        0        
C3        C        0.875        0.314815        0.14882942307692307        0        
C4        C        0.9062500000000001        0.259259        0.14882942307692307        0        
C1        C        0.875        0.351852        0.14882942307692307        0        
C2        C        0.9062500000000001        0.407408        0.14882942307692307        0        
C3        C        0.875        0.42592500000000005        0.14882942307692307        0        
C4        C        0.9062500000000001        0.37037        0.14882942307692307        0        
C1        C        0.875        0.46296300000000007        0.14882942307692307        0        
C2        C        0.9062500000000001        0.518519        0.14882942307692307        0        
C3        C        0.875        0.537037        0.14882942307692307        0        
C4        C        0.9062500000000001        0.481481        0.14882942307692307        0        
C1        C        0.875        0.574075        0.14882942307692307        0        
C2        C        0.9062500000000001        0.62963        0.14882942307692307        0        
C3        C        0.875        0.648148        0.14882942307692307        0        
C4        C        0.9062500000000001        0.592592        0.14882942307692307        0        
C1        C        0.9375        0.018519        0.14882942307692307        0        
C2        C        0.9687500000000001        0.074075        0.14882942307692307        0        
C3        C        0.9375        0.092592        0.14882942307692307        0        
C4        C        0.9687500000000001        0.037037        0.14882942307692307        0        
C1        C        0.9375        0.12963        0.14882942307692307        0        
C2        C        0.9687500000000001        0.185185        0.14882942307692307        0        
C3        C        0.9375        0.203703        0.14882942307692307        0        
C4        C        0.9687500000000001        0.148148        0.14882942307692307        0        
C1        C        0.9375        0.24074099999999998        0.14882942307692307        0        
C2        C        0.9687500000000001        0.296297        0.14882942307692307        0        
C3        C        0.9375        0.314815        0.14882942307692307        0        
C4        C        0.9687500000000001        0.259259        0.14882942307692307        0        
C1        C        0.9375        0.351852        0.14882942307692307        0        
C2        C        0.9687500000000001        0.407408        0.14882942307692307        0        
C3        C        0.9375        0.42592500000000005        0.14882942307692307        0        
C4        C        0.9687500000000001        0.37037        0.14882942307692307        0        
C1        C        0.9375        0.46296300000000007        0.14882942307692307        0        
C2        C        0.9687500000000001        0.518519        0.14882942307692307        0        
C3        C        0.9375        0.537037        0.14882942307692307        0        
C4        C        0.9687500000000001        0.481481        0.14882942307692307        0        
C1        C        0.9375        0.574075        0.14882942307692307        0        
C2        C        0.9687500000000001        0.62963        0.14882942307692307        0        
C3        C        0.9375        0.648148        0.14882942307692307        0        
C4        C        0.9687500000000001        0.592592        0.14882942307692307        0        
C1        C        0.0        0.685186        0.14882942307692307        0        
C1        C        0.0625        0.685186        0.14882942307692307        0        
C1        C        0.125        0.685186        0.14882942307692307        0        
C1        C        0.1875        0.685186        0.14882942307692307        0        
C1        C        0.25        0.685186        0.14882942307692307        0        
C1        C        0.3125        0.685186        0.14882942307692307        0        
C1        C        0.375        0.685186        0.14882942307692307        0        
C1        C        0.4375        0.685186        0.14882942307692307        0        
C1        C        0.5        0.685186        0.14882942307692307        0        
C1        C        0.5625        0.685186        0.14882942307692307        0        
C1        C        0.625        0.685186        0.14882942307692307        0        
C1        C        0.6875        0.685186        0.14882942307692307        0        
C1        C        0.75        0.685186        0.14882942307692307        0        
C1        C        0.8125        0.685186        0.14882942307692307        0        
C1        C        0.875        0.685186        0.14882942307692307        0        
C1        C        0.9375        0.685186        0.14882942307692307        0        
C2        C        0.03125        0.740741        0.14882942307692307        0        
C2        C        0.09375        0.740741        0.14882942307692307        0        
C2        C        0.15625        0.740741        0.14882942307692307        0        
C2        C        0.21875        0.740741        0.14882942307692307        0        
C2        C        0.28125        0.740741        0.14882942307692307        0        
C2        C        0.34375        0.740741        0.14882942307692307        0        
C2        C        0.40625        0.740741        0.14882942307692307        0        
C2        C        0.46875        0.740741        0.14882942307692307        0        
C2        C        0.53125        0.740741        0.14882942307692307        0        
C2        C        0.59375        0.740741        0.14882942307692307        0        
C2        C        0.65625        0.740741        0.14882942307692307        0        
C2        C        0.71875        0.740741        0.14882942307692307        0        
C2        C        0.78125        0.740741        0.14882942307692307        0        
C2        C        0.84375        0.740741        0.14882942307692307        0        
C2        C        0.9062500000000001        0.740741        0.14882942307692307        0        
C2        C        0.9687500000000001        0.740741        0.14882942307692307        0        
C3        C        0.0        0.759259        0.14882942307692307        0        
C3        C        0.0625        0.759259        0.14882942307692307        0        
C3        C        0.125        0.759259        0.14882942307692307        0        
C3        C        0.1875        0.759259        0.14882942307692307        0        
C3        C        0.25        0.759259        0.14882942307692307        0        
C3        C        0.3125        0.759259        0.14882942307692307        0        
C3        C        0.375        0.759259        0.14882942307692307        0        
C3        C        0.4375        0.759259        0.14882942307692307        0        
C3        C        0.5        0.759259        0.14882942307692307        0        
C3        C        0.5625        0.759259        0.14882942307692307        0        
C3        C        0.625        0.759259        0.14882942307692307        0        
C3        C        0.6875        0.759259        0.14882942307692307        0        
C3        C        0.75        0.759259        0.14882942307692307        0        
C3        C        0.8125        0.759259        0.14882942307692307        0        
C3        C        0.875        0.759259        0.14882942307692307        0        
C3        C        0.9375        0.759259        0.14882942307692307        0        
C4        C        0.03125        0.703703        0.14882942307692307        0        
C4        C        0.09375        0.703703        0.14882942307692307        0        
C4        C        0.15625        0.703703        0.14882942307692307        0        
C4        C        0.21875        0.703703        0.14882942307692307        0        
C4        C        0.28125        0.703703        0.14882942307692307        0        
C4        C        0.34375        0.703703        0.14882942307692307        0        
C4        C        0.40625        0.703703        0.14882942307692307        0        
C4        C        0.46875        0.703703        0.14882942307692307        0        
C4        C        0.53125        0.703703        0.14882942307692307        0        
C4        C        0.59375        0.703703        0.14882942307692307        0        
C4        C        0.65625        0.703703        0.14882942307692307        0        
C4        C        0.71875        0.703703        0.14882942307692307        0        
C4        C        0.78125        0.703703        0.14882942307692307        0        
C4        C        0.84375        0.703703        0.14882942307692307        0        
C4        C        0.9062500000000001        0.703703        0.14882942307692307        0        
C4        C        0.9687500000000001        0.703703        0.14882942307692307        0        
C1        C        0.0        0.796297        0.14882942307692307        0        
C1        C        0.0625        0.796297        0.14882942307692307        0        
C1        C        0.125        0.796297        0.14882942307692307        0        
C1        C        0.1875        0.796297        0.14882942307692307        0        
C1        C        0.25        0.796297        0.14882942307692307        0        
C1        C        0.3125        0.796297        0.14882942307692307        0        
C1        C        0.375        0.796297        0.14882942307692307        0        
C1        C        0.4375        0.796297        0.14882942307692307        0        
C1        C        0.5        0.796297        0.14882942307692307        0        
C1        C        0.5625        0.796297        0.14882942307692307        0        
C1        C        0.625        0.796297        0.14882942307692307        0        
C1        C        0.6875        0.796297        0.14882942307692307        0        
C1        C        0.75        0.796297        0.14882942307692307        0        
C1        C        0.8125        0.796297        0.14882942307692307        0        
C1        C        0.875        0.796297        0.14882942307692307        0        
C1        C        0.9375        0.796297        0.14882942307692307        0        
C2        C        0.03125        0.851852        0.14882942307692307        0        
C2        C        0.09375        0.851852        0.14882942307692307        0        
C2        C        0.15625        0.851852        0.14882942307692307        0        
C2        C        0.21875        0.851852        0.14882942307692307        0        
C2        C        0.28125        0.851852        0.14882942307692307        0        
C2        C        0.34375        0.851852        0.14882942307692307        0        
C2        C        0.40625        0.851852        0.14882942307692307        0        
C2        C        0.46875        0.851852        0.14882942307692307        0        
C2        C        0.53125        0.851852        0.14882942307692307        0        
C2        C        0.59375        0.851852        0.14882942307692307        0        
C2        C        0.65625        0.851852        0.14882942307692307        0        
C2        C        0.71875        0.851852        0.14882942307692307        0        
C2        C        0.78125        0.851852        0.14882942307692307        0        
C2        C        0.84375        0.851852        0.14882942307692307        0        
C2        C        0.9062500000000001        0.851852        0.14882942307692307        0        
C2        C        0.9687500000000001        0.851852        0.14882942307692307        0        
C3        C        0.0        0.87037        0.14882942307692307        0        
C3        C        0.0625        0.87037        0.14882942307692307        0        
C3        C        0.125        0.87037        0.14882942307692307        0        
C3        C        0.1875        0.87037        0.14882942307692307        0        
C3        C        0.25        0.87037        0.14882942307692307        0        
C3        C        0.3125        0.87037        0.14882942307692307        0        
C3        C        0.375        0.87037        0.14882942307692307        0        
C3        C        0.4375        0.87037        0.14882942307692307        0        
C3        C        0.5        0.87037        0.14882942307692307        0        
C3        C        0.5625        0.87037        0.14882942307692307        0        
C3        C        0.625        0.87037        0.14882942307692307        0        
C3        C        0.6875        0.87037        0.14882942307692307        0        
C3        C        0.75        0.87037        0.14882942307692307        0        
C3        C        0.8125        0.87037        0.14882942307692307        0        
C3        C        0.875        0.87037        0.14882942307692307        0        
C3        C        0.9375        0.87037        0.14882942307692307        0        
C4        C        0.03125        0.814814        0.14882942307692307        0        
C4        C        0.09375        0.814814        0.14882942307692307        0        
C4        C        0.15625        0.814814        0.14882942307692307        0        
C4        C        0.21875        0.814814        0.14882942307692307        0        
C4        C        0.28125        0.814814        0.14882942307692307        0        
C4        C        0.34375        0.814814        0.14882942307692307        0        
C4        C        0.40625        0.814814        0.14882942307692307        0        
C4        C        0.46875        0.814814        0.14882942307692307        0        
C4        C        0.53125        0.814814        0.14882942307692307        0        
C4        C        0.59375        0.814814        0.14882942307692307        0        
C4        C        0.65625        0.814814        0.14882942307692307        0        
C4        C        0.71875        0.814814        0.14882942307692307        0        
C4        C        0.78125        0.814814        0.14882942307692307        0        
C4        C        0.84375        0.814814        0.14882942307692307        0        
C4        C        0.9062500000000001        0.814814        0.14882942307692307        0        
C4        C        0.9687500000000001        0.814814        0.14882942307692307        0        
C1        C        0.0        0.907408        0.14882942307692307        0        
C1        C        0.0625        0.907408        0.14882942307692307        0        
C1        C        0.125        0.907408        0.14882942307692307        0        
C1        C        0.1875        0.907408        0.14882942307692307        0        
C1        C        0.25        0.907408        0.14882942307692307        0        
C1        C        0.3125        0.907408        0.14882942307692307        0        
C1        C        0.375        0.907408        0.14882942307692307        0        
C1        C        0.4375        0.907408        0.14882942307692307        0        
C1        C        0.5        0.907408        0.14882942307692307        0        
C1        C        0.5625        0.907408        0.14882942307692307        0        
C1        C        0.625        0.907408        0.14882942307692307        0        
C1        C        0.6875        0.907408        0.14882942307692307        0        
C1        C        0.75        0.907408        0.14882942307692307        0        
C1        C        0.8125        0.907408        0.14882942307692307        0        
C1        C        0.875        0.907408        0.14882942307692307        0        
C1        C        0.9375        0.907408        0.14882942307692307        0        
C2        C        0.03125        0.962963        0.14882942307692307        0        
C2        C        0.09375        0.962963        0.14882942307692307        0        
C2        C        0.15625        0.962963        0.14882942307692307        0        
C2        C        0.21875        0.962963        0.14882942307692307        0        
C2        C        0.28125        0.962963        0.14882942307692307        0        
C2        C        0.34375        0.962963        0.14882942307692307        0        
C2        C        0.40625        0.962963        0.14882942307692307        0        
C2        C        0.46875        0.962963        0.14882942307692307        0        
C2        C        0.53125        0.962963        0.14882942307692307        0        
C2        C        0.59375        0.962963        0.14882942307692307        0        
C2        C        0.65625        0.962963        0.14882942307692307        0        
C2        C        0.71875        0.962963        0.14882942307692307        0        
C2        C        0.78125        0.962963        0.14882942307692307        0        
C2        C        0.84375        0.962963        0.14882942307692307        0        
C2        C        0.9062500000000001        0.962963        0.14882942307692307        0        
C2        C        0.9687500000000001        0.962963        0.14882942307692307        0        
C3        C        0.0        0.9814809999999999        0.14882942307692307        0        
C3        C        0.0625        0.9814809999999999        0.14882942307692307        0        
C3        C        0.125        0.9814809999999999        0.14882942307692307        0        
C3        C        0.1875        0.9814809999999999        0.14882942307692307        0        
C3        C        0.25        0.9814809999999999        0.14882942307692307        0        
C3        C        0.3125        0.9814809999999999        0.14882942307692307        0        
C3        C        0.375        0.9814809999999999        0.14882942307692307        0        
C3        C        0.4375        0.9814809999999999        0.14882942307692307        0        
C3        C        0.5        0.9814809999999999        0.14882942307692307        0        
C3        C        0.5625        0.9814809999999999        0.14882942307692307        0        
C3        C        0.625        0.9814809999999999        0.14882942307692307        0        
C3        C        0.6875        0.9814809999999999        0.14882942307692307        0        
C3        C        0.75        0.9814809999999999        0.14882942307692307        0        
C3        C        0.8125        0.9814809999999999        0.14882942307692307        0        
C3        C        0.875        0.9814809999999999        0.14882942307692307        0        
C3        C        0.9375        0.9814809999999999        0.14882942307692307        0        
C4        C        0.03125        0.925925        0.14882942307692307        0        
C4        C        0.09375        0.925925        0.14882942307692307        0        
C4        C        0.15625        0.925925        0.14882942307692307        0        
C4        C        0.21875        0.925925        0.14882942307692307        0        
C4        C        0.28125        0.925925        0.14882942307692307        0        
C4        C        0.34375        0.925925        0.14882942307692307        0        
C4        C        0.40625        0.925925        0.14882942307692307        0        
C4        C        0.46875        0.925925        0.14882942307692307        0        
C4        C        0.53125        0.925925        0.14882942307692307        0        
C4        C        0.59375        0.925925        0.14882942307692307        0        
C4        C        0.65625        0.925925        0.14882942307692307        0        
C4        C        0.71875        0.925925        0.14882942307692307        0        
C4        C        0.78125        0.925925        0.14882942307692307        0        
C4        C        0.84375        0.925925        0.14882942307692307        0        
C4        C        0.9062500000000001        0.925925        0.14882942307692307        0        
C4        C        0.9687500000000001        0.925925        0.14882942307692307        0        
C1        C        0.0        0.018519        0.3635734230769231        0        
C2        C        0.03125        0.074075        0.3635734230769231        0        
C3        C        0.0        0.092592        0.3635734230769231        0        
C4        C        0.03125        0.037037        0.3635734230769231        0        
C1        C        0.0        0.12963        0.3635734230769231        0        
C2        C        0.03125        0.185185        0.3635734230769231        0        
C3        C        0.0        0.203703        0.3635734230769231        0        
C4        C        0.03125        0.148148        0.3635734230769231        0        
C1        C        0.0        0.24074099999999998        0.3635734230769231        0        
C2        C        0.03125        0.296297        0.3635734230769231        0        
C3        C        0.0        0.314815        0.3635734230769231        0        
C4        C        0.03125        0.259259        0.3635734230769231        0        
C1        C        0.0        0.351852        0.3635734230769231        0        
C2        C        0.03125        0.407408        0.3635734230769231        0        
C3        C        0.0        0.42592500000000005        0.3635734230769231        0        
C4        C        0.03125        0.37037        0.3635734230769231        0        
C1        C        0.0        0.46296300000000007        0.3635734230769231        0        
C2        C        0.03125        0.518519        0.3635734230769231        0        
C3        C        0.0        0.537037        0.3635734230769231        0        
C4        C        0.03125        0.481481        0.3635734230769231        0        
C1        C        0.0        0.574075        0.3635734230769231        0        
C2        C        0.03125        0.62963        0.3635734230769231        0        
C3        C        0.0        0.648148        0.3635734230769231        0        
C4        C        0.03125        0.592592        0.3635734230769231        0        
C1        C        0.0625        0.018519        0.3635734230769231        0        
C2        C        0.09375        0.074075        0.3635734230769231        0        
C3        C        0.0625        0.092592        0.3635734230769231        0        
C4        C        0.09375        0.037037        0.3635734230769231        0        
C1        C        0.0625        0.12963        0.3635734230769231        0        
C2        C        0.09375        0.185185        0.3635734230769231        0        
C3        C        0.0625        0.203703        0.3635734230769231        0        
C4        C        0.09375        0.148148        0.3635734230769231        0        
C1        C        0.0625        0.24074099999999998        0.3635734230769231        0        
C2        C        0.09375        0.296297        0.3635734230769231        0        
C3        C        0.0625        0.314815        0.3635734230769231        0        
C4        C        0.09375        0.259259        0.3635734230769231        0        
C1        C        0.0625        0.351852        0.3635734230769231        0        
C2        C        0.09375        0.407408        0.3635734230769231        0        
C3        C        0.0625        0.42592500000000005        0.3635734230769231        0        
C4        C        0.09375        0.37037        0.3635734230769231        0        
C1        C        0.0625        0.46296300000000007        0.3635734230769231        0        
C2        C        0.09375        0.518519        0.3635734230769231        0        
C3        C        0.0625        0.537037        0.3635734230769231        0        
C4        C        0.09375        0.481481        0.3635734230769231        0        
C1        C        0.0625        0.574075        0.3635734230769231        0        
C2        C        0.09375        0.62963        0.3635734230769231        0        
C3        C        0.0625        0.648148        0.3635734230769231        0        
C4        C        0.09375        0.592592        0.3635734230769231        0        
C1        C        0.125        0.018519        0.3635734230769231        0        
C2        C        0.15625        0.074075        0.3635734230769231        0        
C3        C        0.125        0.092592        0.3635734230769231        0        
C4        C        0.15625        0.037037        0.3635734230769231        0        
C1        C        0.125        0.12963        0.3635734230769231        0        
C2        C        0.15625        0.185185        0.3635734230769231        0        
C3        C        0.125        0.203703        0.3635734230769231        0        
C4        C        0.15625        0.148148        0.3635734230769231        0        
C1        C        0.125        0.24074099999999998        0.3635734230769231        0        
C2        C        0.15625        0.296297        0.3635734230769231        0        
C3        C        0.125        0.314815        0.3635734230769231        0        
C4        C        0.15625        0.259259        0.3635734230769231        0        
C1        C        0.125        0.351852        0.3635734230769231        0        
C2        C        0.15625        0.407408        0.3635734230769231        0        
C3        C        0.125        0.42592500000000005        0.3635734230769231        0        
C4        C        0.15625        0.37037        0.3635734230769231        0        
C1        C        0.125        0.46296300000000007        0.3635734230769231        0        
C2        C        0.15625        0.518519        0.3635734230769231        0        
C3        C        0.125        0.537037        0.3635734230769231        0        
C4        C        0.15625        0.481481        0.3635734230769231        0        
C1        C        0.125        0.574075        0.3635734230769231        0        
C2        C        0.15625        0.62963        0.3635734230769231        0        
C3        C        0.125        0.648148        0.3635734230769231        0        
C4        C        0.15625        0.592592        0.3635734230769231        0        
C1        C        0.1875        0.018519        0.3635734230769231        0        
C2        C        0.21875        0.074075        0.3635734230769231        0        
C3        C        0.1875        0.092592        0.3635734230769231        0        
C4        C        0.21875        0.037037        0.3635734230769231        0        
C1        C        0.1875        0.12963        0.3635734230769231        0        
C2        C        0.21875        0.185185        0.3635734230769231        0        
C3        C        0.1875        0.203703        0.3635734230769231        0        
C4        C        0.21875        0.148148        0.3635734230769231        0        
C1        C        0.1875        0.24074099999999998        0.3635734230769231        0        
C2        C        0.21875        0.296297        0.3635734230769231        0        
C3        C        0.1875        0.314815        0.3635734230769231        0        
C4        C        0.21875        0.259259        0.3635734230769231        0        
C1        C        0.1875        0.351852        0.3635734230769231        0        
C2        C        0.21875        0.407408        0.3635734230769231        0        
C3        C        0.1875        0.42592500000000005        0.3635734230769231        0        
C4        C        0.21875        0.37037        0.3635734230769231        0        
C1        C        0.1875        0.46296300000000007        0.3635734230769231        0        
C2        C        0.21875        0.518519        0.3635734230769231        0        
C3        C        0.1875        0.537037        0.3635734230769231        0        
C4        C        0.21875        0.481481        0.3635734230769231        0        
C1        C        0.1875        0.574075        0.3635734230769231        0        
C2        C        0.21875        0.62963        0.3635734230769231        0        
C3        C        0.1875        0.648148        0.3635734230769231        0        
C4        C        0.21875        0.592592        0.3635734230769231        0        
C1        C        0.25        0.018519        0.3635734230769231        0        
C2        C        0.28125        0.074075        0.3635734230769231        0        
C3        C        0.25        0.092592        0.3635734230769231        0        
C4        C        0.28125        0.037037        0.3635734230769231        0        
C1        C        0.25        0.12963        0.3635734230769231        0        
C2        C        0.28125        0.185185        0.3635734230769231        0        
C3        C        0.25        0.203703        0.3635734230769231        0        
C4        C        0.28125        0.148148        0.3635734230769231        0        
C1        C        0.25        0.24074099999999998        0.3635734230769231        0        
C2        C        0.28125        0.296297        0.3635734230769231        0        
C3        C        0.25        0.314815        0.3635734230769231        0        
C4        C        0.28125        0.259259        0.3635734230769231        0        
C1        C        0.25        0.351852        0.3635734230769231        0        
C2        C        0.28125        0.407408        0.3635734230769231        0        
C3        C        0.25        0.42592500000000005        0.3635734230769231        0        
C4        C        0.28125        0.37037        0.3635734230769231        0        
C1        C        0.25        0.46296300000000007        0.3635734230769231        0        
C2        C        0.28125        0.518519        0.3635734230769231        0        
C3        C        0.25        0.537037        0.3635734230769231        0        
C4        C        0.28125        0.481481        0.3635734230769231        0        
C1        C        0.25        0.574075        0.3635734230769231        0        
C2        C        0.28125        0.62963        0.3635734230769231        0        
C3        C        0.25        0.648148        0.3635734230769231        0        
C4        C        0.28125        0.592592        0.3635734230769231        0        
C1        C        0.3125        0.018519        0.3635734230769231        0        
C2        C        0.34375        0.074075        0.3635734230769231        0        
C3        C        0.3125        0.092592        0.3635734230769231        0        
C4        C        0.34375        0.037037        0.3635734230769231        0        
C1        C        0.3125        0.12963        0.3635734230769231        0        
C2        C        0.34375        0.185185        0.3635734230769231        0        
C3        C        0.3125        0.203703        0.3635734230769231        0        
C4        C        0.34375        0.148148        0.3635734230769231        0        
C1        C        0.3125        0.24074099999999998        0.3635734230769231        0        
C2        C        0.34375        0.296297        0.3635734230769231        0        
C3        C        0.3125        0.314815        0.3635734230769231        0        
C4        C        0.34375        0.259259        0.3635734230769231        0        
C1        C        0.3125        0.351852        0.3635734230769231        0        
C2        C        0.34375        0.407408        0.3635734230769231        0        
C3        C        0.3125        0.42592500000000005        0.3635734230769231        0        
C4        C        0.34375        0.37037        0.3635734230769231        0        
C1        C        0.3125        0.46296300000000007        0.3635734230769231        0        
C2        C        0.34375        0.518519        0.3635734230769231        0        
C3        C        0.3125        0.537037        0.3635734230769231        0        
C4        C        0.34375        0.481481        0.3635734230769231        0        
C1        C        0.3125        0.574075        0.3635734230769231        0        
C2        C        0.34375        0.62963        0.3635734230769231        0        
C3        C        0.3125        0.648148        0.3635734230769231        0        
C4        C        0.34375        0.592592        0.3635734230769231        0        
C1        C        0.375        0.018519        0.3635734230769231        0        
C2        C        0.40625        0.074075        0.3635734230769231        0        
C3        C        0.375        0.092592        0.3635734230769231        0        
C4        C        0.40625        0.037037        0.3635734230769231        0        
C1        C        0.375        0.12963        0.3635734230769231        0        
C2        C        0.40625        0.185185        0.3635734230769231        0        
C3        C        0.375        0.203703        0.3635734230769231        0        
C4        C        0.40625        0.148148        0.3635734230769231        0        
C1        C        0.375        0.24074099999999998        0.3635734230769231        0        
C2        C        0.40625        0.296297        0.3635734230769231        0        
C3        C        0.375        0.314815        0.3635734230769231        0        
C4        C        0.40625        0.259259        0.3635734230769231        0        
C1        C        0.375        0.351852        0.3635734230769231        0        
C2        C        0.40625        0.407408        0.3635734230769231        0        
C3        C        0.375        0.42592500000000005        0.3635734230769231        0        
C4        C        0.40625        0.37037        0.3635734230769231        0        
C1        C        0.375        0.46296300000000007        0.3635734230769231        0        
C2        C        0.40625        0.518519        0.3635734230769231        0        
C3        C        0.375        0.537037        0.3635734230769231        0        
C4        C        0.40625        0.481481        0.3635734230769231        0        
C1        C        0.375        0.574075        0.3635734230769231        0        
C2        C        0.40625        0.62963        0.3635734230769231        0        
C3        C        0.375        0.648148        0.3635734230769231        0        
C4        C        0.40625        0.592592        0.3635734230769231        0        
C1        C        0.4375        0.018519        0.3635734230769231        0        
C2        C        0.46875        0.074075        0.3635734230769231        0        
C3        C        0.4375        0.092592        0.3635734230769231        0        
C4        C        0.46875        0.037037        0.3635734230769231        0        
C1        C        0.4375        0.12963        0.3635734230769231        0        
C2        C        0.46875        0.185185        0.3635734230769231        0        
C3        C        0.4375        0.203703        0.3635734230769231        0        
C4        C        0.46875        0.148148        0.3635734230769231        0        
C1        C        0.4375        0.24074099999999998        0.3635734230769231        0        
C2        C        0.46875        0.296297        0.3635734230769231        0        
C3        C        0.4375        0.314815        0.3635734230769231        0        
C4        C        0.46875        0.259259        0.3635734230769231        0        
C1        C        0.4375        0.351852        0.3635734230769231        0        
C2        C        0.46875        0.407408        0.3635734230769231        0        
C3        C        0.4375        0.42592500000000005        0.3635734230769231        0        
C4        C        0.46875        0.37037        0.3635734230769231        0        
C1        C        0.4375        0.46296300000000007        0.3635734230769231        0        
C2        C        0.46875        0.518519        0.3635734230769231        0        
C3        C        0.4375        0.537037        0.3635734230769231        0        
C4        C        0.46875        0.481481        0.3635734230769231        0        
C1        C        0.4375        0.574075        0.3635734230769231        0        
C2        C        0.46875        0.62963        0.3635734230769231        0        
C3        C        0.4375        0.648148        0.3635734230769231        0        
C4        C        0.46875        0.592592        0.3635734230769231        0        
C1        C        0.5        0.018519        0.3635734230769231        0        
C2        C        0.53125        0.074075        0.3635734230769231        0        
C3        C        0.5        0.092592        0.3635734230769231        0        
C4        C        0.53125        0.037037        0.3635734230769231        0        
C1        C        0.5        0.12963        0.3635734230769231        0        
C2        C        0.53125        0.185185        0.3635734230769231        0        
C3        C        0.5        0.203703        0.3635734230769231        0        
C4        C        0.53125        0.148148        0.3635734230769231        0        
C1        C        0.5        0.24074099999999998        0.3635734230769231        0        
C2        C        0.53125        0.296297        0.3635734230769231        0        
C3        C        0.5        0.314815        0.3635734230769231        0        
C4        C        0.53125        0.259259        0.3635734230769231        0        
C1        C        0.5        0.351852        0.3635734230769231        0        
C2        C        0.53125        0.407408        0.3635734230769231        0        
C3        C        0.5        0.42592500000000005        0.3635734230769231        0        
C4        C        0.53125        0.37037        0.3635734230769231        0        
C1        C        0.5        0.46296300000000007        0.3635734230769231        0        
C2        C        0.53125        0.518519        0.3635734230769231        0        
C3        C        0.5        0.537037        0.3635734230769231        0        
C4        C        0.53125        0.481481        0.3635734230769231        0        
C1        C        0.5        0.574075        0.3635734230769231        0        
C2        C        0.53125        0.62963        0.3635734230769231        0        
C3        C        0.5        0.648148        0.3635734230769231        0        
C4        C        0.53125        0.592592        0.3635734230769231        0        
C1        C        0.5625        0.018519        0.3635734230769231        0        
C2        C        0.59375        0.074075        0.3635734230769231        0        
C3        C        0.5625        0.092592        0.3635734230769231        0        
C4        C        0.59375        0.037037        0.3635734230769231        0        
C1        C        0.5625        0.12963        0.3635734230769231        0        
C2        C        0.59375        0.185185        0.3635734230769231        0        
C3        C        0.5625        0.203703        0.3635734230769231        0        
C4        C        0.59375        0.148148        0.3635734230769231        0        
C1        C        0.5625        0.24074099999999998        0.3635734230769231        0        
C2        C        0.59375        0.296297        0.3635734230769231        0        
C3        C        0.5625        0.314815        0.3635734230769231        0        
C4        C        0.59375        0.259259        0.3635734230769231        0        
C1        C        0.5625        0.351852        0.3635734230769231        0        
C2        C        0.59375        0.407408        0.3635734230769231        0        
C3        C        0.5625        0.42592500000000005        0.3635734230769231        0        
C4        C        0.59375        0.37037        0.3635734230769231        0        
C1        C        0.5625        0.46296300000000007        0.3635734230769231        0        
C2        C        0.59375        0.518519        0.3635734230769231        0        
C3        C        0.5625        0.537037        0.3635734230769231        0        
C4        C        0.59375        0.481481        0.3635734230769231        0        
C1        C        0.5625        0.574075        0.3635734230769231        0        
C2        C        0.59375        0.62963        0.3635734230769231        0        
C3        C        0.5625        0.648148        0.3635734230769231        0        
C4        C        0.59375        0.592592        0.3635734230769231        0        
C1        C        0.625        0.018519        0.3635734230769231        0        
C2        C        0.65625        0.074075        0.3635734230769231        0        
C3        C        0.625        0.092592        0.3635734230769231        0        
C4        C        0.65625        0.037037        0.3635734230769231        0        
C1        C        0.625        0.12963        0.3635734230769231        0        
C2        C        0.65625        0.185185        0.3635734230769231        0        
C3        C        0.625        0.203703        0.3635734230769231        0        
C4        C        0.65625        0.148148        0.3635734230769231        0        
C1        C        0.625        0.24074099999999998        0.3635734230769231        0        
C2        C        0.65625        0.296297        0.3635734230769231        0        
C3        C        0.625        0.314815        0.3635734230769231        0        
C4        C        0.65625        0.259259        0.3635734230769231        0        
C1        C        0.625        0.351852        0.3635734230769231        0        
C2        C        0.65625        0.407408        0.3635734230769231        0        
C3        C        0.625        0.42592500000000005        0.3635734230769231        0        
C4        C        0.65625        0.37037        0.3635734230769231        0        
C1        C        0.625        0.46296300000000007        0.3635734230769231        0        
C2        C        0.65625        0.518519        0.3635734230769231        0        
C3        C        0.625        0.537037        0.3635734230769231        0        
C4        C        0.65625        0.481481        0.3635734230769231        0        
C1        C        0.625        0.574075        0.3635734230769231        0        
C2        C        0.65625        0.62963        0.3635734230769231        0        
C3        C        0.625        0.648148        0.3635734230769231        0        
C4        C        0.65625        0.592592        0.3635734230769231        0        
C1        C        0.6875        0.018519        0.3635734230769231        0        
C2        C        0.71875        0.074075        0.3635734230769231        0        
C3        C        0.6875        0.092592        0.3635734230769231        0        
C4        C        0.71875        0.037037        0.3635734230769231        0        
C1        C        0.6875        0.12963        0.3635734230769231        0        
C2        C        0.71875        0.185185        0.3635734230769231        0        
C3        C        0.6875        0.203703        0.3635734230769231        0        
C4        C        0.71875        0.148148        0.3635734230769231        0        
C1        C        0.6875        0.24074099999999998        0.3635734230769231        0        
C2        C        0.71875        0.296297        0.3635734230769231        0        
C3        C        0.6875        0.314815        0.3635734230769231        0        
C4        C        0.71875        0.259259        0.3635734230769231        0        
C1        C        0.6875        0.351852        0.3635734230769231        0        
C2        C        0.71875        0.407408        0.3635734230769231        0        
C3        C        0.6875        0.42592500000000005        0.3635734230769231        0        
C4        C        0.71875        0.37037        0.3635734230769231        0        
C1        C        0.6875        0.46296300000000007        0.3635734230769231        0        
C2        C        0.71875        0.518519        0.3635734230769231        0        
C3        C        0.6875        0.537037        0.3635734230769231        0        
C4        C        0.71875        0.481481        0.3635734230769231        0        
C1        C        0.6875        0.574075        0.3635734230769231        0        
C2        C        0.71875        0.62963        0.3635734230769231        0        
C3        C        0.6875        0.648148        0.3635734230769231        0        
C4        C        0.71875        0.592592        0.3635734230769231        0        
C1        C        0.75        0.018519        0.3635734230769231        0        
C2        C        0.78125        0.074075        0.3635734230769231        0        
C3        C        0.75        0.092592        0.3635734230769231        0        
C4        C        0.78125        0.037037        0.3635734230769231        0        
C1        C        0.75        0.12963        0.3635734230769231        0        
C2        C        0.78125        0.185185        0.3635734230769231        0        
C3        C        0.75        0.203703        0.3635734230769231        0        
C4        C        0.78125        0.148148        0.3635734230769231        0        
C1        C        0.75        0.24074099999999998        0.3635734230769231        0        
C2        C        0.78125        0.296297        0.3635734230769231        0        
C3        C        0.75        0.314815        0.3635734230769231        0        
C4        C        0.78125        0.259259        0.3635734230769231        0        
C1        C        0.75        0.351852        0.3635734230769231        0        
C2        C        0.78125        0.407408        0.3635734230769231        0        
C3        C        0.75        0.42592500000000005        0.3635734230769231        0        
C4        C        0.78125        0.37037        0.3635734230769231        0        
C1        C        0.75        0.46296300000000007        0.3635734230769231        0        
C2        C        0.78125        0.518519        0.3635734230769231        0        
C3        C        0.75        0.537037        0.3635734230769231        0        
C4        C        0.78125        0.481481        0.3635734230769231        0        
C1        C        0.75        0.574075        0.3635734230769231        0        
C2        C        0.78125        0.62963        0.3635734230769231        0        
C3        C        0.75        0.648148        0.3635734230769231        0        
C4        C        0.78125        0.592592        0.3635734230769231        0        
C1        C        0.8125        0.018519        0.3635734230769231        0        
C2        C        0.84375        0.074075        0.3635734230769231        0        
C3        C        0.8125        0.092592        0.3635734230769231        0        
C4        C        0.84375        0.037037        0.3635734230769231        0        
C1        C        0.8125        0.12963        0.3635734230769231        0        
C2        C        0.84375        0.185185        0.3635734230769231        0        
C3        C        0.8125        0.203703        0.3635734230769231        0        
C4        C        0.84375        0.148148        0.3635734230769231        0        
C1        C        0.8125        0.24074099999999998        0.3635734230769231        0        
C2        C        0.84375        0.296297        0.3635734230769231        0        
C3        C        0.8125        0.314815        0.3635734230769231        0        
C4        C        0.84375        0.259259        0.3635734230769231        0        
C1        C        0.8125        0.351852        0.3635734230769231        0        
C2        C        0.84375        0.407408        0.3635734230769231        0        
C3        C        0.8125        0.42592500000000005        0.3635734230769231        0        
C4        C        0.84375        0.37037        0.3635734230769231        0        
C1        C        0.8125        0.46296300000000007        0.3635734230769231        0        
C2        C        0.84375        0.518519        0.3635734230769231        0        
C3        C        0.8125        0.537037        0.3635734230769231        0        
C4        C        0.84375        0.481481        0.3635734230769231        0        
C1        C        0.8125        0.574075        0.3635734230769231        0        
C2        C        0.84375        0.62963        0.3635734230769231        0        
C3        C        0.8125        0.648148        0.3635734230769231        0        
C4        C        0.84375        0.592592        0.3635734230769231        0        
C1        C        0.875        0.018519        0.3635734230769231        0        
C2        C        0.9062500000000001        0.074075        0.3635734230769231        0        
C3        C        0.875        0.092592        0.3635734230769231        0        
C4        C        0.9062500000000001        0.037037        0.3635734230769231        0        
C1        C        0.875        0.12963        0.3635734230769231        0        
C2        C        0.9062500000000001        0.185185        0.3635734230769231        0        
C3        C        0.875        0.203703        0.3635734230769231        0        
C4        C        0.9062500000000001        0.148148        0.3635734230769231        0        
C1        C        0.875        0.24074099999999998        0.3635734230769231        0        
C2        C        0.9062500000000001        0.296297        0.3635734230769231        0        
C3        C        0.875        0.314815        0.3635734230769231        0        
C4        C        0.9062500000000001        0.259259        0.3635734230769231        0        
C1        C        0.875        0.351852        0.3635734230769231        0        
C2        C        0.9062500000000001        0.407408        0.3635734230769231        0        
C3        C        0.875        0.42592500000000005        0.3635734230769231        0        
C4        C        0.9062500000000001        0.37037        0.3635734230769231        0        
C1        C        0.875        0.46296300000000007        0.3635734230769231        0        
C2        C        0.9062500000000001        0.518519        0.3635734230769231        0        
C3        C        0.875        0.537037        0.3635734230769231        0        
C4        C        0.9062500000000001        0.481481        0.3635734230769231        0        
C1        C        0.875        0.574075        0.3635734230769231        0        
C2        C        0.9062500000000001        0.62963        0.3635734230769231        0        
C3        C        0.875        0.648148        0.3635734230769231        0        
C4        C        0.9062500000000001        0.592592        0.3635734230769231        0        
C1        C        0.9375        0.018519        0.3635734230769231        0        
C2        C        0.9687500000000001        0.074075        0.3635734230769231        0        
C3        C        0.9375        0.092592        0.3635734230769231        0        
C4        C        0.9687500000000001        0.037037        0.3635734230769231        0        
C1        C        0.9375        0.12963        0.3635734230769231        0        
C2        C        0.9687500000000001        0.185185        0.3635734230769231        0        
C3        C        0.9375        0.203703        0.3635734230769231        0        
C4        C        0.9687500000000001        0.148148        0.3635734230769231        0        
C1        C        0.9375        0.24074099999999998        0.3635734230769231        0        
C2        C        0.9687500000000001        0.296297        0.3635734230769231        0        
C3        C        0.9375        0.314815        0.3635734230769231        0        
C4        C        0.9687500000000001        0.259259        0.3635734230769231        0        
C1        C        0.9375        0.351852        0.3635734230769231        0        
C2        C        0.9687500000000001        0.407408        0.3635734230769231        0        
C3        C        0.9375        0.42592500000000005        0.3635734230769231        0        
C4        C        0.9687500000000001        0.37037        0.3635734230769231        0        
C1        C        0.9375        0.46296300000000007        0.3635734230769231        0        
C2        C        0.9687500000000001        0.518519        0.3635734230769231        0        
C3        C        0.9375        0.537037        0.3635734230769231        0        
C4        C        0.9687500000000001        0.481481        0.3635734230769231        0        
C1        C        0.9375        0.574075        0.3635734230769231        0        
C2        C        0.9687500000000001        0.62963        0.3635734230769231        0        
C3        C        0.9375        0.648148        0.3635734230769231        0        
C4        C        0.9687500000000001        0.592592        0.3635734230769231        0        
C1        C        0.0        0.685186        0.3635734230769231        0        
C1        C        0.0625        0.685186        0.3635734230769231        0        
C1        C        0.125        0.685186        0.3635734230769231        0        
C1        C        0.1875        0.685186        0.3635734230769231        0        
C1        C        0.25        0.685186        0.3635734230769231        0        
C1        C        0.3125        0.685186        0.3635734230769231        0        
C1        C        0.375        0.685186        0.3635734230769231        0        
C1        C        0.4375        0.685186        0.3635734230769231        0        
C1        C        0.5        0.685186        0.3635734230769231        0        
C1        C        0.5625        0.685186        0.3635734230769231        0        
C1        C        0.625        0.685186        0.3635734230769231        0        
C1        C        0.6875        0.685186        0.3635734230769231        0        
C1        C        0.75        0.685186        0.3635734230769231        0        
C1        C        0.8125        0.685186        0.3635734230769231        0        
C1        C        0.875        0.685186        0.3635734230769231        0        
C1        C        0.9375        0.685186        0.3635734230769231        0        
C2        C        0.03125        0.740741        0.3635734230769231        0        
C2        C        0.09375        0.740741        0.3635734230769231        0        
C2        C        0.15625        0.740741        0.3635734230769231        0        
C2        C        0.21875        0.740741        0.3635734230769231        0        
C2        C        0.28125        0.740741        0.3635734230769231        0        
C2        C        0.34375        0.740741        0.3635734230769231        0        
C2        C        0.40625        0.740741        0.3635734230769231        0        
C2        C        0.46875        0.740741        0.3635734230769231        0        
C2        C        0.53125        0.740741        0.3635734230769231        0        
C2        C        0.59375        0.740741        0.3635734230769231        0        
C2        C        0.65625        0.740741        0.3635734230769231        0        
C2        C        0.71875        0.740741        0.3635734230769231        0        
C2        C        0.78125        0.740741        0.3635734230769231        0        
C2        C        0.84375        0.740741        0.3635734230769231        0        
C2        C        0.9062500000000001        0.740741        0.3635734230769231        0        
C2        C        0.9687500000000001        0.740741        0.3635734230769231        0        
C3        C        0.0        0.759259        0.3635734230769231        0        
C3        C        0.0625        0.759259        0.3635734230769231        0        
C3        C        0.125        0.759259        0.3635734230769231        0        
C3        C        0.1875        0.759259        0.3635734230769231        0        
C3        C        0.25        0.759259        0.3635734230769231        0        
C3        C        0.3125        0.759259        0.3635734230769231        0        
C3        C        0.375        0.759259        0.3635734230769231        0        
C3        C        0.4375        0.759259        0.3635734230769231        0        
C3        C        0.5        0.759259        0.3635734230769231        0        
C3        C        0.5625        0.759259        0.3635734230769231        0        
C3        C        0.625        0.759259        0.3635734230769231        0        
C3        C        0.6875        0.759259        0.3635734230769231        0        
C3        C        0.75        0.759259        0.3635734230769231        0        
C3        C        0.8125        0.759259        0.3635734230769231        0        
C3        C        0.875        0.759259        0.3635734230769231        0        
C3        C        0.9375        0.759259        0.3635734230769231        0        
C4        C        0.03125        0.703703        0.3635734230769231        0        
C4        C        0.09375        0.703703        0.3635734230769231        0        
C4        C        0.15625        0.703703        0.3635734230769231        0        
C4        C        0.21875        0.703703        0.3635734230769231        0        
C4        C        0.28125        0.703703        0.3635734230769231        0        
C4        C        0.34375        0.703703        0.3635734230769231        0        
C4        C        0.40625        0.703703        0.3635734230769231        0        
C4        C        0.46875        0.703703        0.3635734230769231        0        
C4        C        0.53125        0.703703        0.3635734230769231        0        
C4        C        0.59375        0.703703        0.3635734230769231        0        
C4        C        0.65625        0.703703        0.3635734230769231        0        
C4        C        0.71875        0.703703        0.3635734230769231        0        
C4        C        0.78125        0.703703        0.3635734230769231        0        
C4        C        0.84375        0.703703        0.3635734230769231        0        
C4        C        0.9062500000000001        0.703703        0.3635734230769231        0        
C4        C        0.9687500000000001        0.703703        0.3635734230769231        0        
C1        C        0.0        0.796297        0.3635734230769231        0        
C1        C        0.0625        0.796297        0.3635734230769231        0        
C1        C        0.125        0.796297        0.3635734230769231        0        
C1        C        0.1875        0.796297        0.3635734230769231        0        
C1        C        0.25        0.796297        0.3635734230769231        0        
C1        C        0.3125        0.796297        0.3635734230769231        0        
C1        C        0.375        0.796297        0.3635734230769231        0        
C1        C        0.4375        0.796297        0.3635734230769231        0        
C1        C        0.5        0.796297        0.3635734230769231        0        
C1        C        0.5625        0.796297        0.3635734230769231        0        
C1        C        0.625        0.796297        0.3635734230769231        0        
C1        C        0.6875        0.796297        0.3635734230769231        0        
C1        C        0.75        0.796297        0.3635734230769231        0        
C1        C        0.8125        0.796297        0.3635734230769231        0        
C1        C        0.875        0.796297        0.3635734230769231        0        
C1        C        0.9375        0.796297        0.3635734230769231        0        
C2        C        0.03125        0.851852        0.3635734230769231        0        
C2        C        0.09375        0.851852        0.3635734230769231        0        
C2        C        0.15625        0.851852        0.3635734230769231        0        
C2        C        0.21875        0.851852        0.3635734230769231        0        
C2        C        0.28125        0.851852        0.3635734230769231        0        
C2        C        0.34375        0.851852        0.3635734230769231        0        
C2        C        0.40625        0.851852        0.3635734230769231        0        
C2        C        0.46875        0.851852        0.3635734230769231        0        
C2        C        0.53125        0.851852        0.3635734230769231        0        
C2        C        0.59375        0.851852        0.3635734230769231        0        
C2        C        0.65625        0.851852        0.3635734230769231        0        
C2        C        0.71875        0.851852        0.3635734230769231        0        
C2        C        0.78125        0.851852        0.3635734230769231        0        
C2        C        0.84375        0.851852        0.3635734230769231        0        
C2        C        0.9062500000000001        0.851852        0.3635734230769231        0        
C2        C        0.9687500000000001        0.851852        0.3635734230769231        0        
C3        C        0.0        0.87037        0.3635734230769231        0        
C3        C        0.0625        0.87037        0.3635734230769231        0        
C3        C        0.125        0.87037        0.3635734230769231        0        
C3        C        0.1875        0.87037        0.3635734230769231        0        
C3        C        0.25        0.87037        0.3635734230769231        0        
C3        C        0.3125        0.87037        0.3635734230769231        0        
C3        C        0.375        0.87037        0.3635734230769231        0        
C3        C        0.4375        0.87037        0.3635734230769231        0        
C3        C        0.5        0.87037        0.3635734230769231        0        
C3        C        0.5625        0.87037        0.3635734230769231        0        
C3        C        0.625        0.87037        0.3635734230769231        0        
C3        C        0.6875        0.87037        0.3635734230769231        0        
C3        C        0.75        0.87037        0.3635734230769231        0        
C3        C        0.8125        0.87037        0.3635734230769231        0        
C3        C        0.875        0.87037        0.3635734230769231        0        
C3        C        0.9375        0.87037        0.3635734230769231        0        
C4        C        0.03125        0.814814        0.3635734230769231        0        
C4        C        0.09375        0.814814        0.3635734230769231        0        
C4        C        0.15625        0.814814        0.3635734230769231        0        
C4        C        0.21875        0.814814        0.3635734230769231        0        
C4        C        0.28125        0.814814        0.3635734230769231        0        
C4        C        0.34375        0.814814        0.3635734230769231        0        
C4        C        0.40625        0.814814        0.3635734230769231        0        
C4        C        0.46875        0.814814        0.3635734230769231        0        
C4        C        0.53125        0.814814        0.3635734230769231        0        
C4        C        0.59375        0.814814        0.3635734230769231        0        
C4        C        0.65625        0.814814        0.3635734230769231        0        
C4        C        0.71875        0.814814        0.3635734230769231        0        
C4        C        0.78125        0.814814        0.3635734230769231        0        
C4        C        0.84375        0.814814        0.3635734230769231        0        
C4        C        0.9062500000000001        0.814814        0.3635734230769231        0        
C4        C        0.9687500000000001        0.814814        0.3635734230769231        0        
C1        C        0.0        0.907408        0.3635734230769231        0        
C1        C        0.0625        0.907408        0.3635734230769231        0        
C1        C        0.125        0.907408        0.3635734230769231        0        
C1        C        0.1875        0.907408        0.3635734230769231        0        
C1        C        0.25        0.907408        0.3635734230769231        0        
C1        C        0.3125        0.907408        0.3635734230769231        0        
C1        C        0.375        0.907408        0.3635734230769231        0        
C1        C        0.4375        0.907408        0.3635734230769231        0        
C1        C        0.5        0.907408        0.3635734230769231        0        
C1        C        0.5625        0.907408        0.3635734230769231        0        
C1        C        0.625        0.907408        0.3635734230769231        0        
C1        C        0.6875        0.907408        0.3635734230769231        0        
C1        C        0.75        0.907408        0.3635734230769231        0        
C1        C        0.8125        0.907408        0.3635734230769231        0        
C1        C        0.875        0.907408        0.3635734230769231        0        
C1        C        0.9375        0.907408        0.3635734230769231        0        
C2        C        0.03125        0.962963        0.3635734230769231        0        
C2        C        0.09375        0.962963        0.3635734230769231        0        
C2        C        0.15625        0.962963        0.3635734230769231        0        
C2        C        0.21875        0.962963        0.3635734230769231        0        
C2        C        0.28125        0.962963        0.3635734230769231        0        
C2        C        0.34375        0.962963        0.3635734230769231        0        
C2        C        0.40625        0.962963        0.3635734230769231        0        
C2        C        0.46875        0.962963        0.3635734230769231        0        
C2        C        0.53125        0.962963        0.3635734230769231        0        
C2        C        0.59375        0.962963        0.3635734230769231        0        
C2        C        0.65625        0.962963        0.3635734230769231        0        
C2        C        0.71875        0.962963        0.3635734230769231        0        
C2        C        0.78125        0.962963        0.3635734230769231        0        
C2        C        0.84375        0.962963        0.3635734230769231        0        
C2        C        0.9062500000000001        0.962963        0.3635734230769231        0        
C2        C        0.9687500000000001        0.962963        0.3635734230769231        0        
C3        C        0.0        0.9814809999999999        0.3635734230769231        0        
C3        C        0.0625        0.9814809999999999        0.3635734230769231        0        
C3        C        0.125        0.9814809999999999        0.3635734230769231        0        
C3        C        0.1875        0.9814809999999999        0.3635734230769231        0        
C3        C        0.25        0.9814809999999999        0.3635734230769231        0        
C3        C        0.3125        0.9814809999999999        0.3635734230769231        0        
C3        C        0.375        0.9814809999999999        0.3635734230769231        0        
C3        C        0.4375        0.9814809999999999        0.3635734230769231        0        
C3        C        0.5        0.9814809999999999        0.3635734230769231        0        
C3        C        0.5625        0.9814809999999999        0.3635734230769231        0        
C3        C        0.625        0.9814809999999999        0.3635734230769231        0        
C3        C        0.6875        0.9814809999999999        0.3635734230769231        0        
C3        C        0.75        0.9814809999999999        0.3635734230769231        0        
C3        C        0.8125        0.9814809999999999        0.3635734230769231        0        
C3        C        0.875        0.9814809999999999        0.3635734230769231        0        
C3        C        0.9375        0.9814809999999999        0.3635734230769231        0        
C4        C        0.03125        0.925925        0.3635734230769231        0        
C4        C        0.09375        0.925925        0.3635734230769231        0        
C4        C        0.15625        0.925925        0.3635734230769231        0        
C4        C        0.21875        0.925925        0.3635734230769231        0        
C4        C        0.28125        0.925925        0.3635734230769231        0        
C4        C        0.34375        0.925925        0.3635734230769231        0        
C4        C        0.40625        0.925925        0.3635734230769231        0        
C4        C        0.46875        0.925925        0.3635734230769231        0        
C4        C        0.53125        0.925925        0.3635734230769231        0        
C4        C        0.59375        0.925925        0.3635734230769231        0        
C4        C        0.65625        0.925925        0.3635734230769231        0        
C4        C        0.71875        0.925925        0.3635734230769231        0        
C4        C        0.78125        0.925925        0.3635734230769231        0        
C4        C        0.84375        0.925925        0.3635734230769231        0        
C4        C        0.9062500000000001        0.925925        0.3635734230769231        0        
C4        C        0.9687500000000001        0.925925        0.3635734230769231        0        
C1        C        0.0        0.018519        0.5783164230769231        0        
C2        C        0.03125        0.074075        0.5783164230769231        0        
C3        C        0.0        0.092592        0.5783164230769231        0        
C4        C        0.03125        0.037037        0.5783164230769231        0        
C1        C        0.0        0.12963        0.5783164230769231        0        
C2        C        0.03125        0.185185        0.5783164230769231        0        
C3        C        0.0        0.203703        0.5783164230769231        0        
C4        C        0.03125        0.148148        0.5783164230769231        0        
C1        C        0.0        0.24074099999999998        0.5783164230769231        0        
C2        C        0.03125        0.296297        0.5783164230769231        0        
C3        C        0.0        0.314815        0.5783164230769231        0        
C4        C        0.03125        0.259259        0.5783164230769231        0        
C1        C        0.0        0.351852        0.5783164230769231        0        
C2        C        0.03125        0.407408        0.5783164230769231        0        
C3        C        0.0        0.42592500000000005        0.5783164230769231        0        
C4        C        0.03125        0.37037        0.5783164230769231        0        
C1        C        0.0        0.46296300000000007        0.5783164230769231        0        
C2        C        0.03125        0.518519        0.5783164230769231        0        
C3        C        0.0        0.537037        0.5783164230769231        0        
C4        C        0.03125        0.481481        0.5783164230769231        0        
C1        C        0.0        0.574075        0.5783164230769231        0        
C2        C        0.03125        0.62963        0.5783164230769231        0        
C3        C        0.0        0.648148        0.5783164230769231        0        
C4        C        0.03125        0.592592        0.5783164230769231        0        
C1        C        0.0625        0.018519        0.5783164230769231        0        
C2        C        0.09375        0.074075        0.5783164230769231        0        
C3        C        0.0625        0.092592        0.5783164230769231        0        
C4        C        0.09375        0.037037        0.5783164230769231        0        
C1        C        0.0625        0.12963        0.5783164230769231        0        
C2        C        0.09375        0.185185        0.5783164230769231        0        
C3        C        0.0625        0.203703        0.5783164230769231        0        
C4        C        0.09375        0.148148        0.5783164230769231        0        
C1        C        0.0625        0.24074099999999998        0.5783164230769231        0        
C2        C        0.09375        0.296297        0.5783164230769231        0        
C3        C        0.0625        0.314815        0.5783164230769231        0        
C4        C        0.09375        0.259259        0.5783164230769231        0        
C1        C        0.0625        0.351852        0.5783164230769231        0        
C2        C        0.09375        0.407408        0.5783164230769231        0        
C3        C        0.0625        0.42592500000000005        0.5783164230769231        0        
C4        C        0.09375        0.37037        0.5783164230769231        0        
C1        C        0.0625        0.46296300000000007        0.5783164230769231        0        
C2        C        0.09375        0.518519        0.5783164230769231        0        
C3        C        0.0625        0.537037        0.5783164230769231        0        
C4        C        0.09375        0.481481        0.5783164230769231        0        
C1        C        0.0625        0.574075        0.5783164230769231        0        
C2        C        0.09375        0.62963        0.5783164230769231        0        
C3        C        0.0625        0.648148        0.5783164230769231        0        
C4        C        0.09375        0.592592        0.5783164230769231        0        
C1        C        0.125        0.018519        0.5783164230769231        0        
C2        C        0.15625        0.074075        0.5783164230769231        0        
C3        C        0.125        0.092592        0.5783164230769231        0        
C4        C        0.15625        0.037037        0.5783164230769231        0        
C1        C        0.125        0.12963        0.5783164230769231        0        
C2        C        0.15625        0.185185        0.5783164230769231        0        
C3        C        0.125        0.203703        0.5783164230769231        0        
C4        C        0.15625        0.148148        0.5783164230769231        0        
C1        C        0.125        0.24074099999999998        0.5783164230769231        0        
C2        C        0.15625        0.296297        0.5783164230769231        0        
C3        C        0.125        0.314815        0.5783164230769231        0        
C4        C        0.15625        0.259259        0.5783164230769231        0        
C1        C        0.125        0.351852        0.5783164230769231        0        
C2        C        0.15625        0.407408        0.5783164230769231        0        
C3        C        0.125        0.42592500000000005        0.5783164230769231        0        
C4        C        0.15625        0.37037        0.5783164230769231        0        
C1        C        0.125        0.46296300000000007        0.5783164230769231        0        
C2        C        0.15625        0.518519        0.5783164230769231        0        
C3        C        0.125        0.537037        0.5783164230769231        0        
C4        C        0.15625        0.481481        0.5783164230769231        0        
C1        C        0.125        0.574075        0.5783164230769231        0        
C2        C        0.15625        0.62963        0.5783164230769231        0        
C3        C        0.125        0.648148        0.5783164230769231        0        
C4        C        0.15625        0.592592        0.5783164230769231        0        
C1        C        0.1875        0.018519        0.5783164230769231        0        
C2        C        0.21875        0.074075        0.5783164230769231        0        
C3        C        0.1875        0.092592        0.5783164230769231        0        
C4        C        0.21875        0.037037        0.5783164230769231        0        
C1        C        0.1875        0.12963        0.5783164230769231        0        
C2        C        0.21875        0.185185        0.5783164230769231        0        
C3        C        0.1875        0.203703        0.5783164230769231        0        
C4        C        0.21875        0.148148        0.5783164230769231        0        
C1        C        0.1875        0.24074099999999998        0.5783164230769231        0        
C2        C        0.21875        0.296297        0.5783164230769231        0        
C3        C        0.1875        0.314815        0.5783164230769231        0        
C4        C        0.21875        0.259259        0.5783164230769231        0        
C1        C        0.1875        0.351852        0.5783164230769231        0        
C2        C        0.21875        0.407408        0.5783164230769231        0        
C3        C        0.1875        0.42592500000000005        0.5783164230769231        0        
C4        C        0.21875        0.37037        0.5783164230769231        0        
C1        C        0.1875        0.46296300000000007        0.5783164230769231        0        
C2        C        0.21875        0.518519        0.5783164230769231        0        
C3        C        0.1875        0.537037        0.5783164230769231        0        
C4        C        0.21875        0.481481        0.5783164230769231        0        
C1        C        0.1875        0.574075        0.5783164230769231        0        
C2        C        0.21875        0.62963        0.5783164230769231        0        
C3        C        0.1875        0.648148        0.5783164230769231        0        
C4        C        0.21875        0.592592        0.5783164230769231        0        
C1        C        0.25        0.018519        0.5783164230769231        0        
C2        C        0.28125        0.074075        0.5783164230769231        0        
C3        C        0.25        0.092592        0.5783164230769231        0        
C4        C        0.28125        0.037037        0.5783164230769231        0        
C1        C        0.25        0.12963        0.5783164230769231        0        
C2        C        0.28125        0.185185        0.5783164230769231        0        
C3        C        0.25        0.203703        0.5783164230769231        0        
C4        C        0.28125        0.148148        0.5783164230769231        0        
C1        C        0.25        0.24074099999999998        0.5783164230769231        0        
C2        C        0.28125        0.296297        0.5783164230769231        0        
C3        C        0.25        0.314815        0.5783164230769231        0        
C4        C        0.28125        0.259259        0.5783164230769231        0        
C1        C        0.25        0.351852        0.5783164230769231        0        
C2        C        0.28125        0.407408        0.5783164230769231        0        
C3        C        0.25        0.42592500000000005        0.5783164230769231        0        
C4        C        0.28125        0.37037        0.5783164230769231        0        
C1        C        0.25        0.46296300000000007        0.5783164230769231        0        
C2        C        0.28125        0.518519        0.5783164230769231        0        
C3        C        0.25        0.537037        0.5783164230769231        0        
C4        C        0.28125        0.481481        0.5783164230769231        0        
C1        C        0.25        0.574075        0.5783164230769231        0        
C2        C        0.28125        0.62963        0.5783164230769231        0        
C3        C        0.25        0.648148        0.5783164230769231        0        
C4        C        0.28125        0.592592        0.5783164230769231        0        
C1        C        0.3125        0.018519        0.5783164230769231        0        
C2        C        0.34375        0.074075        0.5783164230769231        0        
C3        C        0.3125        0.092592        0.5783164230769231        0        
C4        C        0.34375        0.037037        0.5783164230769231        0        
C1        C        0.3125        0.12963        0.5783164230769231        0        
C2        C        0.34375        0.185185        0.5783164230769231        0        
C3        C        0.3125        0.203703        0.5783164230769231        0        
C4        C        0.34375        0.148148        0.5783164230769231        0        
C1        C        0.3125        0.24074099999999998        0.5783164230769231        0        
C2        C        0.34375        0.296297        0.5783164230769231        0        
C3        C        0.3125        0.314815        0.5783164230769231        0        
C4        C        0.34375        0.259259        0.5783164230769231        0        
C1        C        0.3125        0.351852        0.5783164230769231        0        
C2        C        0.34375        0.407408        0.5783164230769231        0        
C3        C        0.3125        0.42592500000000005        0.5783164230769231        0        
C4        C        0.34375        0.37037        0.5783164230769231        0        
C1        C        0.3125        0.46296300000000007        0.5783164230769231        0        
C2        C        0.34375        0.518519        0.5783164230769231        0        
C3        C        0.3125        0.537037        0.5783164230769231        0        
C4        C        0.34375        0.481481        0.5783164230769231        0        
C1        C        0.3125        0.574075        0.5783164230769231        0        
C2        C        0.34375        0.62963        0.5783164230769231        0        
C3        C        0.3125        0.648148        0.5783164230769231        0        
C4        C        0.34375        0.592592        0.5783164230769231        0        
C1        C        0.375        0.018519        0.5783164230769231        0        
C2        C        0.40625        0.074075        0.5783164230769231        0        
C3        C        0.375        0.092592        0.5783164230769231        0        
C4        C        0.40625        0.037037        0.5783164230769231        0        
C1        C        0.375        0.12963        0.5783164230769231        0        
C2        C        0.40625        0.185185        0.5783164230769231        0        
C3        C        0.375        0.203703        0.5783164230769231        0        
C4        C        0.40625        0.148148        0.5783164230769231        0        
C1        C        0.375        0.24074099999999998        0.5783164230769231        0        
C2        C        0.40625        0.296297        0.5783164230769231        0        
C3        C        0.375        0.314815        0.5783164230769231        0        
C4        C        0.40625        0.259259        0.5783164230769231        0        
C1        C        0.375        0.351852        0.5783164230769231        0        
C2        C        0.40625        0.407408        0.5783164230769231        0        
C3        C        0.375        0.42592500000000005        0.5783164230769231        0        
C4        C        0.40625        0.37037        0.5783164230769231        0        
C1        C        0.375        0.46296300000000007        0.5783164230769231        0        
C2        C        0.40625        0.518519        0.5783164230769231        0        
C3        C        0.375        0.537037        0.5783164230769231        0        
C4        C        0.40625        0.481481        0.5783164230769231        0        
C1        C        0.375        0.574075        0.5783164230769231        0        
C2        C        0.40625        0.62963        0.5783164230769231        0        
C3        C        0.375        0.648148        0.5783164230769231        0        
C4        C        0.40625        0.592592        0.5783164230769231        0        
C1        C        0.4375        0.018519        0.5783164230769231        0        
C2        C        0.46875        0.074075        0.5783164230769231        0        
C3        C        0.4375        0.092592        0.5783164230769231        0        
C4        C        0.46875        0.037037        0.5783164230769231        0        
C1        C        0.4375        0.12963        0.5783164230769231        0        
C2        C        0.46875        0.185185        0.5783164230769231        0        
C3        C        0.4375        0.203703        0.5783164230769231        0        
C4        C        0.46875        0.148148        0.5783164230769231        0        
C1        C        0.4375        0.24074099999999998        0.5783164230769231        0        
C2        C        0.46875        0.296297        0.5783164230769231        0        
C3        C        0.4375        0.314815        0.5783164230769231        0        
C4        C        0.46875        0.259259        0.5783164230769231        0        
C1        C        0.4375        0.351852        0.5783164230769231        0        
C2        C        0.46875        0.407408        0.5783164230769231        0        
C3        C        0.4375        0.42592500000000005        0.5783164230769231        0        
C4        C        0.46875        0.37037        0.5783164230769231        0        
C1        C        0.4375        0.46296300000000007        0.5783164230769231        0        
C2        C        0.46875        0.518519        0.5783164230769231        0        
C3        C        0.4375        0.537037        0.5783164230769231        0        
C4        C        0.46875        0.481481        0.5783164230769231        0        
C1        C        0.4375        0.574075        0.5783164230769231        0        
C2        C        0.46875        0.62963        0.5783164230769231        0        
C3        C        0.4375        0.648148        0.5783164230769231        0        
C4        C        0.46875        0.592592        0.5783164230769231        0        
C1        C        0.5        0.018519        0.5783164230769231        0        
C2        C        0.53125        0.074075        0.5783164230769231        0        
C3        C        0.5        0.092592        0.5783164230769231        0        
C4        C        0.53125        0.037037        0.5783164230769231        0        
C1        C        0.5        0.12963        0.5783164230769231        0        
C2        C        0.53125        0.185185        0.5783164230769231        0        
C3        C        0.5        0.203703        0.5783164230769231        0        
C4        C        0.53125        0.148148        0.5783164230769231        0        
C1        C        0.5        0.24074099999999998        0.5783164230769231        0        
C2        C        0.53125        0.296297        0.5783164230769231        0        
C3        C        0.5        0.314815        0.5783164230769231        0        
C4        C        0.53125        0.259259        0.5783164230769231        0        
C1        C        0.5        0.351852        0.5783164230769231        0        
C2        C        0.53125        0.407408        0.5783164230769231        0        
C3        C        0.5        0.42592500000000005        0.5783164230769231        0        
C4        C        0.53125        0.37037        0.5783164230769231        0        
C1        C        0.5        0.46296300000000007        0.5783164230769231        0        
C2        C        0.53125        0.518519        0.5783164230769231        0        
C3        C        0.5        0.537037        0.5783164230769231        0        
C4        C        0.53125        0.481481        0.5783164230769231        0        
C1        C        0.5        0.574075        0.5783164230769231        0        
C2        C        0.53125        0.62963        0.5783164230769231        0        
C3        C        0.5        0.648148        0.5783164230769231        0        
C4        C        0.53125        0.592592        0.5783164230769231        0        
C1        C        0.5625        0.018519        0.5783164230769231        0        
C2        C        0.59375        0.074075        0.5783164230769231        0        
C3        C        0.5625        0.092592        0.5783164230769231        0        
C4        C        0.59375        0.037037        0.5783164230769231        0        
C1        C        0.5625        0.12963        0.5783164230769231        0        
C2        C        0.59375        0.185185        0.5783164230769231        0        
C3        C        0.5625        0.203703        0.5783164230769231        0        
C4        C        0.59375        0.148148        0.5783164230769231        0        
C1        C        0.5625        0.24074099999999998        0.5783164230769231        0        
C2        C        0.59375        0.296297        0.5783164230769231        0        
C3        C        0.5625        0.314815        0.5783164230769231        0        
C4        C        0.59375        0.259259        0.5783164230769231        0        
C1        C        0.5625        0.351852        0.5783164230769231        0        
C2        C        0.59375        0.407408        0.5783164230769231        0        
C3        C        0.5625        0.42592500000000005        0.5783164230769231        0        
C4        C        0.59375        0.37037        0.5783164230769231        0        
C1        C        0.5625        0.46296300000000007        0.5783164230769231        0        
C2        C        0.59375        0.518519        0.5783164230769231        0        
C3        C        0.5625        0.537037        0.5783164230769231        0        
C4        C        0.59375        0.481481        0.5783164230769231        0        
C1        C        0.5625        0.574075        0.5783164230769231        0        
C2        C        0.59375        0.62963        0.5783164230769231        0        
C3        C        0.5625        0.648148        0.5783164230769231        0        
C4        C        0.59375        0.592592        0.5783164230769231        0        
C1        C        0.625        0.018519        0.5783164230769231        0        
C2        C        0.65625        0.074075        0.5783164230769231        0        
C3        C        0.625        0.092592        0.5783164230769231        0        
C4        C        0.65625        0.037037        0.5783164230769231        0        
C1        C        0.625        0.12963        0.5783164230769231        0        
C2        C        0.65625        0.185185        0.5783164230769231        0        
C3        C        0.625        0.203703        0.5783164230769231        0        
C4        C        0.65625        0.148148        0.5783164230769231        0        
C1        C        0.625        0.24074099999999998        0.5783164230769231        0        
C2        C        0.65625        0.296297        0.5783164230769231        0        
C3        C        0.625        0.314815        0.5783164230769231        0        
C4        C        0.65625        0.259259        0.5783164230769231        0        
C1        C        0.625        0.351852        0.5783164230769231        0        
C2        C        0.65625        0.407408        0.5783164230769231        0        
C3        C        0.625        0.42592500000000005        0.5783164230769231        0        
C4        C        0.65625        0.37037        0.5783164230769231        0        
C1        C        0.625        0.46296300000000007        0.5783164230769231        0        
C2        C        0.65625        0.518519        0.5783164230769231        0        
C3        C        0.625        0.537037        0.5783164230769231        0        
C4        C        0.65625        0.481481        0.5783164230769231        0        
C1        C        0.625        0.574075        0.5783164230769231        0        
C2        C        0.65625        0.62963        0.5783164230769231        0        
C3        C        0.625        0.648148        0.5783164230769231        0        
C4        C        0.65625        0.592592        0.5783164230769231        0        
C1        C        0.6875        0.018519        0.5783164230769231        0        
C2        C        0.71875        0.074075        0.5783164230769231        0        
C3        C        0.6875        0.092592        0.5783164230769231        0        
C4        C        0.71875        0.037037        0.5783164230769231        0        
C1        C        0.6875        0.12963        0.5783164230769231        0        
C2        C        0.71875        0.185185        0.5783164230769231        0        
C3        C        0.6875        0.203703        0.5783164230769231        0        
C4        C        0.71875        0.148148        0.5783164230769231        0        
C1        C        0.6875        0.24074099999999998        0.5783164230769231        0        
C2        C        0.71875        0.296297        0.5783164230769231        0        
C3        C        0.6875        0.314815        0.5783164230769231        0        
C4        C        0.71875        0.259259        0.5783164230769231        0        
C1        C        0.6875        0.351852        0.5783164230769231        0        
C2        C        0.71875        0.407408        0.5783164230769231        0        
C3        C        0.6875        0.42592500000000005        0.5783164230769231        0        
C4        C        0.71875        0.37037        0.5783164230769231        0        
C1        C        0.6875        0.46296300000000007        0.5783164230769231        0        
C2        C        0.71875        0.518519        0.5783164230769231        0        
C3        C        0.6875        0.537037        0.5783164230769231        0        
C4        C        0.71875        0.481481        0.5783164230769231        0        
C1        C        0.6875        0.574075        0.5783164230769231        0        
C2        C        0.71875        0.62963        0.5783164230769231        0        
C3        C        0.6875        0.648148        0.5783164230769231        0        
C4        C        0.71875        0.592592        0.5783164230769231        0        
C1        C        0.75        0.018519        0.5783164230769231        0        
C2        C        0.78125        0.074075        0.5783164230769231        0        
C3        C        0.75        0.092592        0.5783164230769231        0        
C4        C        0.78125        0.037037        0.5783164230769231        0        
C1        C        0.75        0.12963        0.5783164230769231        0        
C2        C        0.78125        0.185185        0.5783164230769231        0        
C3        C        0.75        0.203703        0.5783164230769231        0        
C4        C        0.78125        0.148148        0.5783164230769231        0        
C1        C        0.75        0.24074099999999998        0.5783164230769231        0        
C2        C        0.78125        0.296297        0.5783164230769231        0        
C3        C        0.75        0.314815        0.5783164230769231        0        
C4        C        0.78125        0.259259        0.5783164230769231        0        
C1        C        0.75        0.351852        0.5783164230769231        0        
C2        C        0.78125        0.407408        0.5783164230769231        0        
C3        C        0.75        0.42592500000000005        0.5783164230769231        0        
C4        C        0.78125        0.37037        0.5783164230769231        0        
C1        C        0.75        0.46296300000000007        0.5783164230769231        0        
C2        C        0.78125        0.518519        0.5783164230769231        0        
C3        C        0.75        0.537037        0.5783164230769231        0        
C4        C        0.78125        0.481481        0.5783164230769231        0        
C1        C        0.75        0.574075        0.5783164230769231        0        
C2        C        0.78125        0.62963        0.5783164230769231        0        
C3        C        0.75        0.648148        0.5783164230769231        0        
C4        C        0.78125        0.592592        0.5783164230769231        0        
C1        C        0.8125        0.018519        0.5783164230769231        0        
C2        C        0.84375        0.074075        0.5783164230769231        0        
C3        C        0.8125        0.092592        0.5783164230769231        0        
C4        C        0.84375        0.037037        0.5783164230769231        0        
C1        C        0.8125        0.12963        0.5783164230769231        0        
C2        C        0.84375        0.185185        0.5783164230769231        0        
C3        C        0.8125        0.203703        0.5783164230769231        0        
C4        C        0.84375        0.148148        0.5783164230769231        0        
C1        C        0.8125        0.24074099999999998        0.5783164230769231        0        
C2        C        0.84375        0.296297        0.5783164230769231        0        
C3        C        0.8125        0.314815        0.5783164230769231        0        
C4        C        0.84375        0.259259        0.5783164230769231        0        
C1        C        0.8125        0.351852        0.5783164230769231        0        
C2        C        0.84375        0.407408        0.5783164230769231        0        
C3        C        0.8125        0.42592500000000005        0.5783164230769231        0        
C4        C        0.84375        0.37037        0.5783164230769231        0        
C1        C        0.8125        0.46296300000000007        0.5783164230769231        0        
C2        C        0.84375        0.518519        0.5783164230769231        0        
C3        C        0.8125        0.537037        0.5783164230769231        0        
C4        C        0.84375        0.481481        0.5783164230769231        0        
C1        C        0.8125        0.574075        0.5783164230769231        0        
C2        C        0.84375        0.62963        0.5783164230769231        0        
C3        C        0.8125        0.648148        0.5783164230769231        0        
C4        C        0.84375        0.592592        0.5783164230769231        0        
C1        C        0.875        0.018519        0.5783164230769231        0        
C2        C        0.9062500000000001        0.074075        0.5783164230769231        0        
C3        C        0.875        0.092592        0.5783164230769231        0        
C4        C        0.9062500000000001        0.037037        0.5783164230769231        0        
C1        C        0.875        0.12963        0.5783164230769231        0        
C2        C        0.9062500000000001        0.185185        0.5783164230769231        0        
C3        C        0.875        0.203703        0.5783164230769231        0        
C4        C        0.9062500000000001        0.148148        0.5783164230769231        0        
C1        C        0.875        0.24074099999999998        0.5783164230769231        0        
C2        C        0.9062500000000001        0.296297        0.5783164230769231        0        
C3        C        0.875        0.314815        0.5783164230769231        0        
C4        C        0.9062500000000001        0.259259        0.5783164230769231        0        
C1        C        0.875        0.351852        0.5783164230769231        0        
C2        C        0.9062500000000001        0.407408        0.5783164230769231        0        
C3        C        0.875        0.42592500000000005        0.5783164230769231        0        
C4        C        0.9062500000000001        0.37037        0.5783164230769231        0        
C1        C        0.875        0.46296300000000007        0.5783164230769231        0        
C2        C        0.9062500000000001        0.518519        0.5783164230769231        0        
C3        C        0.875        0.537037        0.5783164230769231        0        
C4        C        0.9062500000000001        0.481481        0.5783164230769231        0        
C1        C        0.875        0.574075        0.5783164230769231        0        
C2        C        0.9062500000000001        0.62963        0.5783164230769231        0        
C3        C        0.875        0.648148        0.5783164230769231        0        
C4        C        0.9062500000000001        0.592592        0.5783164230769231        0        
C1        C        0.9375        0.018519        0.5783164230769231        0        
C2        C        0.9687500000000001        0.074075        0.5783164230769231        0        
C3        C        0.9375        0.092592        0.5783164230769231        0        
C4        C        0.9687500000000001        0.037037        0.5783164230769231        0        
C1        C        0.9375        0.12963        0.5783164230769231        0        
C2        C        0.9687500000000001        0.185185        0.5783164230769231        0        
C3        C        0.9375        0.203703        0.5783164230769231        0        
C4        C        0.9687500000000001        0.148148        0.5783164230769231        0        
C1        C        0.9375        0.24074099999999998        0.5783164230769231        0        
C2        C        0.9687500000000001        0.296297        0.5783164230769231        0        
C3        C        0.9375        0.314815        0.5783164230769231        0        
C4        C        0.9687500000000001        0.259259        0.5783164230769231        0        
C1        C        0.9375        0.351852        0.5783164230769231        0        
C2        C        0.9687500000000001        0.407408        0.5783164230769231        0        
C3        C        0.9375        0.42592500000000005        0.5783164230769231        0        
C4        C        0.9687500000000001        0.37037        0.5783164230769231        0        
C1        C        0.9375        0.46296300000000007        0.5783164230769231        0        
C2        C        0.9687500000000001        0.518519        0.5783164230769231        0        
C3        C        0.9375        0.537037        0.5783164230769231        0        
C4        C        0.9687500000000001        0.481481        0.5783164230769231        0        
C1        C        0.9375        0.574075        0.5783164230769231        0        
C2        C        0.9687500000000001        0.62963        0.5783164230769231        0        
C3        C        0.9375        0.648148        0.5783164230769231        0        
C4        C        0.9687500000000001        0.592592        0.5783164230769231        0        
C1        C        0.0        0.685186        0.5783164230769231        0        
C1        C        0.0625        0.685186        0.5783164230769231        0        
C1        C        0.125        0.685186        0.5783164230769231        0        
C1        C        0.1875        0.685186        0.5783164230769231        0        
C1        C        0.25        0.685186        0.5783164230769231        0        
C1        C        0.3125        0.685186        0.5783164230769231        0        
C1        C        0.375        0.685186        0.5783164230769231        0        
C1        C        0.4375        0.685186        0.5783164230769231        0        
C1        C        0.5        0.685186        0.5783164230769231        0        
C1        C        0.5625        0.685186        0.5783164230769231        0        
C1        C        0.625        0.685186        0.5783164230769231        0        
C1        C        0.6875        0.685186        0.5783164230769231        0        
C1        C        0.75        0.685186        0.5783164230769231        0        
C1        C        0.8125        0.685186        0.5783164230769231        0        
C1        C        0.875        0.685186        0.5783164230769231        0        
C1        C        0.9375        0.685186        0.5783164230769231        0        
C2        C        0.03125        0.740741        0.5783164230769231        0        
C2        C        0.09375        0.740741        0.5783164230769231        0        
C2        C        0.15625        0.740741        0.5783164230769231        0        
C2        C        0.21875        0.740741        0.5783164230769231        0        
C2        C        0.28125        0.740741        0.5783164230769231        0        
C2        C        0.34375        0.740741        0.5783164230769231        0        
C2        C        0.40625        0.740741        0.5783164230769231        0        
C2        C        0.46875        0.740741        0.5783164230769231        0        
C2        C        0.53125        0.740741        0.5783164230769231        0        
C2        C        0.59375        0.740741        0.5783164230769231        0        
C2        C        0.65625        0.740741        0.5783164230769231        0        
C2        C        0.71875        0.740741        0.5783164230769231        0        
C2        C        0.78125        0.740741        0.5783164230769231        0        
C2        C        0.84375        0.740741        0.5783164230769231        0        
C2        C        0.9062500000000001        0.740741        0.5783164230769231        0        
C2        C        0.9687500000000001        0.740741        0.5783164230769231        0        
C3        C        0.0        0.759259        0.5783164230769231        0        
C3        C        0.0625        0.759259        0.5783164230769231        0        
C3        C        0.125        0.759259        0.5783164230769231        0        
C3        C        0.1875        0.759259        0.5783164230769231        0        
C3        C        0.25        0.759259        0.5783164230769231        0        
C3        C        0.3125        0.759259        0.5783164230769231        0        
C3        C        0.375        0.759259        0.5783164230769231        0        
C3        C        0.4375        0.759259        0.5783164230769231        0        
C3        C        0.5        0.759259        0.5783164230769231        0        
C3        C        0.5625        0.759259        0.5783164230769231        0        
C3        C        0.625        0.759259        0.5783164230769231        0        
C3        C        0.6875        0.759259        0.5783164230769231        0        
C3        C        0.75        0.759259        0.5783164230769231        0        
C3        C        0.8125        0.759259        0.5783164230769231        0        
C3        C        0.875        0.759259        0.5783164230769231        0        
C3        C        0.9375        0.759259        0.5783164230769231        0        
C4        C        0.03125        0.703703        0.5783164230769231        0        
C4        C        0.09375        0.703703        0.5783164230769231        0        
C4        C        0.15625        0.703703        0.5783164230769231        0        
C4        C        0.21875        0.703703        0.5783164230769231        0        
C4        C        0.28125        0.703703        0.5783164230769231        0        
C4        C        0.34375        0.703703        0.5783164230769231        0        
C4        C        0.40625        0.703703        0.5783164230769231        0        
C4        C        0.46875        0.703703        0.5783164230769231        0        
C4        C        0.53125        0.703703        0.5783164230769231        0        
C4        C        0.59375        0.703703        0.5783164230769231        0        
C4        C        0.65625        0.703703        0.5783164230769231        0        
C4        C        0.71875        0.703703        0.5783164230769231        0        
C4        C        0.78125        0.703703        0.5783164230769231        0        
C4        C        0.84375        0.703703        0.5783164230769231        0        
C4        C        0.9062500000000001        0.703703        0.5783164230769231        0        
C4        C        0.9687500000000001        0.703703        0.5783164230769231        0        
C1        C        0.0        0.796297        0.5783164230769231        0        
C1        C        0.0625        0.796297        0.5783164230769231        0        
C1        C        0.125        0.796297        0.5783164230769231        0        
C1        C        0.1875        0.796297        0.5783164230769231        0        
C1        C        0.25        0.796297        0.5783164230769231        0        
C1        C        0.3125        0.796297        0.5783164230769231        0        
C1        C        0.375        0.796297        0.5783164230769231        0        
C1        C        0.4375        0.796297        0.5783164230769231        0        
C1        C        0.5        0.796297        0.5783164230769231        0        
C1        C        0.5625        0.796297        0.5783164230769231        0        
C1        C        0.625        0.796297        0.5783164230769231        0        
C1        C        0.6875        0.796297        0.5783164230769231        0        
C1        C        0.75        0.796297        0.5783164230769231        0        
C1        C        0.8125        0.796297        0.5783164230769231        0        
C1        C        0.875        0.796297        0.5783164230769231        0        
C1        C        0.9375        0.796297        0.5783164230769231        0        
C2        C        0.03125        0.851852        0.5783164230769231        0        
C2        C        0.09375        0.851852        0.5783164230769231        0        
C2        C        0.15625        0.851852        0.5783164230769231        0        
C2        C        0.21875        0.851852        0.5783164230769231        0        
C2        C        0.28125        0.851852        0.5783164230769231        0        
C2        C        0.34375        0.851852        0.5783164230769231        0        
C2        C        0.40625        0.851852        0.5783164230769231        0        
C2        C        0.46875        0.851852        0.5783164230769231        0        
C2        C        0.53125        0.851852        0.5783164230769231        0        
C2        C        0.59375        0.851852        0.5783164230769231        0        
C2        C        0.65625        0.851852        0.5783164230769231        0        
C2        C        0.71875        0.851852        0.5783164230769231        0        
C2        C        0.78125        0.851852        0.5783164230769231        0        
C2        C        0.84375        0.851852        0.5783164230769231        0        
C2        C        0.9062500000000001        0.851852        0.5783164230769231        0        
C2        C        0.9687500000000001        0.851852        0.5783164230769231        0        
C3        C        0.0        0.87037        0.5783164230769231        0        
C3        C        0.0625        0.87037        0.5783164230769231        0        
C3        C        0.125        0.87037        0.5783164230769231        0        
C3        C        0.1875        0.87037        0.5783164230769231        0        
C3        C        0.25        0.87037        0.5783164230769231        0        
C3        C        0.3125        0.87037        0.5783164230769231        0        
C3        C        0.375        0.87037        0.5783164230769231        0        
C3        C        0.4375        0.87037        0.5783164230769231        0        
C3        C        0.5        0.87037        0.5783164230769231        0        
C3        C        0.5625        0.87037        0.5783164230769231        0        
C3        C        0.625        0.87037        0.5783164230769231        0        
C3        C        0.6875        0.87037        0.5783164230769231        0        
C3        C        0.75        0.87037        0.5783164230769231        0        
C3        C        0.8125        0.87037        0.5783164230769231        0        
C3        C        0.875        0.87037        0.5783164230769231        0        
C3        C        0.9375        0.87037        0.5783164230769231        0        
C4        C        0.03125        0.814814        0.5783164230769231        0        
C4        C        0.09375        0.814814        0.5783164230769231        0        
C4        C        0.15625        0.814814        0.5783164230769231        0        
C4        C        0.21875        0.814814        0.5783164230769231        0        
C4        C        0.28125        0.814814        0.5783164230769231        0        
C4        C        0.34375        0.814814        0.5783164230769231        0        
C4        C        0.40625        0.814814        0.5783164230769231        0        
C4        C        0.46875        0.814814        0.5783164230769231        0        
C4        C        0.53125        0.814814        0.5783164230769231        0        
C4        C        0.59375        0.814814        0.5783164230769231        0        
C4        C        0.65625        0.814814        0.5783164230769231        0        
C4        C        0.71875        0.814814        0.5783164230769231        0        
C4        C        0.78125        0.814814        0.5783164230769231        0        
C4        C        0.84375        0.814814        0.5783164230769231        0        
C4        C        0.9062500000000001        0.814814        0.5783164230769231        0        
C4        C        0.9687500000000001        0.814814        0.5783164230769231        0        
C1        C        0.0        0.907408        0.5783164230769231        0        
C1        C        0.0625        0.907408        0.5783164230769231        0        
C1        C        0.125        0.907408        0.5783164230769231        0        
C1        C        0.1875        0.907408        0.5783164230769231        0        
C1        C        0.25        0.907408        0.5783164230769231        0        
C1        C        0.3125        0.907408        0.5783164230769231        0        
C1        C        0.375        0.907408        0.5783164230769231        0        
C1        C        0.4375        0.907408        0.5783164230769231        0        
C1        C        0.5        0.907408        0.5783164230769231        0        
C1        C        0.5625        0.907408        0.5783164230769231        0        
C1        C        0.625        0.907408        0.5783164230769231        0        
C1        C        0.6875        0.907408        0.5783164230769231        0        
C1        C        0.75        0.907408        0.5783164230769231        0        
C1        C        0.8125        0.907408        0.5783164230769231        0        
C1        C        0.875        0.907408        0.5783164230769231        0        
C1        C        0.9375        0.907408        0.5783164230769231        0        
C2        C        0.03125        0.962963        0.5783164230769231        0        
C2        C        0.09375        0.962963        0.5783164230769231        0        
C2        C        0.15625        0.962963        0.5783164230769231        0        
C2        C        0.21875        0.962963        0.5783164230769231        0        
C2        C        0.28125        0.962963        0.5783164230769231        0        
C2        C        0.34375        0.962963        0.5783164230769231        0        
C2        C        0.40625        0.962963        0.5783164230769231        0        
C2        C        0.46875        0.962963        0.5783164230769231        0        
C2        C        0.53125        0.962963        0.5783164230769231        0        
C2        C        0.59375        0.962963        0.5783164230769231        0        
C2        C        0.65625        0.962963        0.5783164230769231        0        
C2        C        0.71875        0.962963        0.5783164230769231        0        
C2        C        0.78125        0.962963        0.5783164230769231        0        
C2        C        0.84375        0.962963        0.5783164230769231        0        
C2        C        0.9062500000000001        0.962963        0.5783164230769231        0        
C2        C        0.9687500000000001        0.962963        0.5783164230769231        0        
C3        C        0.0        0.9814809999999999        0.5783164230769231        0        
C3        C        0.0625        0.9814809999999999        0.5783164230769231        0        
C3        C        0.125        0.9814809999999999        0.5783164230769231        0        
C3        C        0.1875        0.9814809999999999        0.5783164230769231        0        
C3        C        0.25        0.9814809999999999        0.5783164230769231        0        
C3        C        0.3125        0.9814809999999999        0.5783164230769231        0        
C3        C        0.375        0.9814809999999999        0.5783164230769231        0        
C3        C        0.4375        0.9814809999999999        0.5783164230769231        0        
C3        C        0.5        0.9814809999999999        0.5783164230769231        0        
C3        C        0.5625        0.9814809999999999        0.5783164230769231        0        
C3        C        0.625        0.9814809999999999        0.5783164230769231        0        
C3        C        0.6875        0.9814809999999999        0.5783164230769231        0        
C3        C        0.75        0.9814809999999999        0.5783164230769231        0        
C3        C        0.8125        0.9814809999999999        0.5783164230769231        0        
C3        C        0.875        0.9814809999999999        0.5783164230769231        0        
C3        C        0.9375        0.9814809999999999        0.5783164230769231        0        
C4        C        0.03125        0.925925        0.5783164230769231        0        
C4        C        0.09375        0.925925        0.5783164230769231        0        
C4        C        0.15625        0.925925        0.5783164230769231        0        
C4        C        0.21875        0.925925        0.5783164230769231        0        
C4        C        0.28125        0.925925        0.5783164230769231        0        
C4        C        0.34375        0.925925        0.5783164230769231        0        
C4        C        0.40625        0.925925        0.5783164230769231        0        
C4        C        0.46875        0.925925        0.5783164230769231        0        
C4        C        0.53125        0.925925        0.5783164230769231        0        
C4        C        0.59375        0.925925        0.5783164230769231        0        
C4        C        0.65625        0.925925        0.5783164230769231        0        
C4        C        0.71875        0.925925        0.5783164230769231        0        
C4        C        0.78125        0.925925        0.5783164230769231        0        
C4        C        0.84375        0.925925        0.5783164230769231        0        
C4        C        0.9062500000000001        0.925925        0.5783164230769231        0        
C4        C        0.9687500000000001        0.925925        0.5783164230769231        0        
O_CO        O        0.0        0.018519        0.056970448717948714        -0.5        
O_CO        O        0.0        0.203703        0.056970448717948714        -0.5        
O_CO        O        0.0        0.351852        0.056970448717948714        -0.5        
O_CO        O        0.0        0.537037        0.056970448717948714        -0.5        
O_CO        O        0.25        0.018519        0.056970448717948714        -0.5        
C_COOH        C        0.25        0.203703        0.05139352564102564        0.55        
O1_COOH        O        0.2260911077558693        0.22017704383854808        0.0235051282051282        -0.5        
O2_COOH        O        0.27327882444634394        0.18766309440658727        0.0        -0.58        
H_COOH        H        0.2896209815421073        0.17640278967715603        0.03742051282051283        0.45        
C_COOH        C        0.25        0.351852        0.05139352564102564        0.55        
O1_COOH        O        0.25393591738758914        0.38113549019717885        0.0235051282051282        -0.5        
O2_COOH        O        0.24616780531003093        0.3233402136522363        0.0        -0.58        
H_COOH        H        0.2434775351123509        0.3033244223630341        0.03742051282051283        0.45        
C_COOH        C        0.25        0.537037        0.05139352564102564        0.55        
O1_COOH        O        0.22162506172174307        0.5420671742485348        0.0235051282051282        -0.5        
O2_COOH        O        0.2776271773744573        0.5321393852518759        0.0        -0.58        
H_COOH        H        0.29702195711544255        0.5287011708440629        0.03742051282051283        0.45        
C_COOH        C        0.5        0.018519        0.05139352564102564        0.55        
O1_COOH        O        0.507026079249265        0.047186439508477805        0.0235051282051282        -0.5        
O2_COOH        O        0.493159078065196        -0.009392970359390502        0.0        -0.58        
H_COOH        H        0.4883566267560201        -0.028987679942635486        0.03742051282051283        0.45        
O_CO        O        0.5        0.203703        0.056970448717948714        -0.5        
O_CO        O        0.5        0.351852        0.056970448717948714        -0.5        
C_COOH        C        0.5        0.537037        0.05139352564102564        0.55        
O1_COOH        O        0.4876952175841045        0.5637629897104545        0.0235051282051282        -0.5        
O2_COOH        O        0.5119805161521195        0.5110153166751612        0.0        -0.58        
H_COOH        H        0.5203910558465763        0.4927476228845707        0.03742051282051283        0.45        
O_CO        O        0.75        0.018519        0.056970448717948714        -0.5        
C_COOH        C        0.75        0.203703        0.05139352564102564        0.55        
O1_COOH        O        0.776158005749333        0.21606086070335614        0.0235051282051282        -0.5        
O2_COOH        O        0.7245313326319138        0.19167080432533756        0.0        -0.58        
H_COOH        H        0.7066518660760167        0.18322398466846349        0.03742051282051283        0.45        
O_CO        O        0.75        0.351852        0.056970448717948714        -0.5        
O_CO        O        0.75        0.537037        0.056970448717948714        -0.5        
C_COOH        C        0.0        0.685186        0.05139352564102564        0.55        
O1_COOH        O        0.019018148419685927        0.7073819154936773        0.0235051282051282        -0.5        
O2_COOH        O        -0.018516965731235947        0.6635750104599035        0.0        -0.58        
H_COOH        H        -0.031516211617307846        0.6484037037269029        0.03742051282051283        0.45        
C_COOH        C        0.25        0.685186        0.05139352564102564        0.55        
O1_COOH        O        0.26847822879947547        0.7078574627590863        0.0235051282051282        -0.5        
O2_COOH        O        0.2320087254603792        0.6631119952271458        0.0        -0.58        
H_COOH        H        0.21937852432813648        0.6476156434005281        0.03742051282051283        0.45        
C_COOH        C        0.5        0.685186        0.05139352564102564        0.55        
O1_COOH        O        0.5219539064550102        0.7043142357089518        0.0235051282051282        -0.5        
O2_COOH        O        0.4786246418671657        0.6665618480949159        0.0        -0.58        
H_COOH        H        0.46361875265698926        0.6534873555701851        0.03742051282051283        0.45        
C_COOH        C        0.75        0.685186        0.05139352564102564        0.55        
O1_COOH        O        0.7726966884572919        0.703377635062811        0.0235051282051282        -0.5        
O2_COOH        O        0.7279014342983472        0.6674737666311332        0.0        -0.58        
H_COOH        H        0.712387840254118        0.6550394574632445        0.03742051282051283        0.45        
O_CO        O        0.0        0.87037        0.056970448717948714        -0.5        
C_COOH        C        0.25        0.87037        0.05139352564102564        0.55        
O1_COOH        O        0.23009480979643554        0.8917304892775804        0.0235051282051282        -0.5        
O2_COOH        O        0.2693806314231732        0.8495724208021234        0.0        -0.58        
H_COOH        H        0.2829861862939789        0.8349721428866008        0.03742051282051283        0.45        
O_CO        O        0.5        0.87037        0.056970448717948714        -0.5        
C_COOH        C        0.75        0.87037        0.05139352564102564        0.55        
O1_COOH        O        0.7323091252092883        0.8936939903049552        0.0235051282051282        -0.5        
O2_COOH        O        0.7672246695643677        0.8476606636512793        0.0        -0.58        
H_COOH        H        0.7793167000959063        0.8317182975319451        0.03742051282051283        0.45        
O_CO        O        0.0        0.018519        0.6701755769230769        -0.5        
O_CO        O        0.0        0.203703        0.6701755769230769        -0.5        
O_CO        O        0.0        0.351852        0.6701755769230769        -0.5        
O_CO        O        0.0        0.537037        0.6701755769230769        -0.5        
O_CO        O        0.25        0.018519        0.6701755769230769        -0.5        
C_COOH        C        0.25        0.203703        0.6757525        0.55        
O1_COOH        O        0.26759141732836667        0.22710613668361693        0.7036408974358974        -0.5        
O2_COOH        O        0.23287216690894796        0.18091660300641071        0.7271460256410257        -0.58        
H_COOH        H        0.22084811733852608        0.16492013891631133        0.6897255128205128        0.45        
C_COOH        C        0.25        0.351852        0.6757525        0.55        
O1_COOH        O        0.22434220246672718        0.36526963174265853        0.7036408974358974        -0.5        
O2_COOH        O        0.27498164107136824        0.3387879612886408        0.7271460256410257        -0.58        
H_COOH        H        0.2925192063311292        0.3296167690998661        0.6897255128205128        0.45        
C_COOH        C        0.25        0.537037        0.6757525        0.55        
O1_COOH        O        0.27343659274257665        0.5542114285650115        0.7036408974358974        -0.5        
O2_COOH        O        0.22718102861043968        0.520315166823922        0.7271460256410257        -0.58        
H_COOH        H        0.2111616967033899        0.5085761365596367        0.6897255128205128        0.45        
C_COOH        C        0.5        0.018519        0.6757525        0.55        
O1_COOH        O        0.519938452020028        0.03984677009009396        0.7036408974358974        -0.5        
O2_COOH        O        0.48058698330450583        -0.0022467222547046827        0.7271460256410257        -0.58        
H_COOH        H        0.4669586933849833        -0.016824636018158205        0.6897255128205128        0.45        
O_CO        O        0.5        0.203703        0.6701755769230769        -0.5        
O_CO        O        0.5        0.351852        0.6701755769230769        -0.5        
C_COOH        C        0.5        0.537037        0.6757525        0.55        
O1_COOH        O        0.527380353729756        0.5461882743955875        0.7036408974358974        -0.5        
O2_COOH        O        0.47334119702219757        0.5281268878986123        0.7271460256410257        -0.58        
H_COOH        H        0.4546262336763282        0.521871827552358        0.6897255128205128        0.45        
O_CO        O        0.75        0.018519        0.6701755769230769        -0.5        
C_COOH        C        0.75        0.203703        0.6757525        0.55        
O1_COOH        O        0.7291309909333327        0.22407093365531974        0.7036408974358974        -0.5        
O2_COOH        O        0.7703190508983688        0.18387181974055644        0.7271460256410257        -0.58        
H_COOH        H        0.7845833932659709        0.16994997141263843        0.6897255128205128        0.45        
O_CO        O        0.75        0.351852        0.6701755769230769        -0.5        
O_CO        O        0.75        0.537037        0.6701755769230769        -0.5        
C_COOH        C        0.0        0.685186        0.6757525        0.55        
O1_COOH        O        0.01865746969441183        0.7077022188380848        0.7036408974358974        -0.5        
O2_COOH        O        -0.018165791923539024        0.663263148026132        0.7271460256410257        -0.58        
H_COOH        H        -0.030918507425461657        0.6478729082066815        0.6897255128205128        0.45        
C_COOH        C        0.25        0.685186        0.6757525        0.55        
O1_COOH        O        0.26900786145047334        0.7073912004587315        0.7036408974358974        -0.5        
O2_COOH        O        0.23149305014687077        0.6635659701802756        0.7271460256410257        -0.58        
H_COOH        H        0.21850083558894215        0.6483883170069635        0.6897255128205128        0.45        
C_COOH        C        0.5        0.685186        0.6757525        0.55        
O1_COOH        O        0.4796010599087245        0.706049782184964        0.7036408974358974        -0.5        
O2_COOH        O        0.5198613695869938        0.6648720382400292        0.7271460256410257        -0.58        
H_COOH        H        0.5338044113705598        0.6506112685399117        0.6897255128205128        0.45        
C_COOH        C        0.75        0.685186        0.6757525        0.55        
O1_COOH        O        0.7498051819237017        0.7147462685856271        0.7036408974358974        -0.5        
O2_COOH        O        0.7501896840619303        0.6564047291671569        0.7271460256410257        -0.58        
H_COOH        H        0.7503228457147352        0.6361997548803257        0.6897255128205128        0.45        
O_CO        O        0.0        0.87037        0.6701755769230769        -0.5        
C_COOH        C        0.25        0.87037        0.6757525        0.55        
O1_COOH        O        0.23342442111107878        0.8945420143199889        0.7036408974358974        -0.5        
O2_COOH        O        0.26613876490436084        0.8468349874982113        0.7271460256410257        -0.58        
H_COOH        H        0.2774684706636257        0.8303129817396518        0.6897255128205128        0.45        
O_CO        O        0.5        0.87037        0.6701755769230769        -0.5        
C_COOH        C        0.75        0.87037        0.6757525        0.55        
O1_COOH        O        0.7400501101401343        0.8981100699155468        0.7036408974358974        -0.5        
O2_COOH        O        0.7596876817605437        0.8433609603883113        0.7271460256410257        -0.58        
H_COOH        H        0.7664886101145282        0.8244001245713104        0.6897255128205128        0.45        
