data_graphite_ortho

_audit_creation_method RASPA-1.0
_audit_creation_date 2012-2-3
_audit_author_name 'David Dubbeldam'

_cell_length_a    39.36    
_cell_length_b    38.339999999999996    
_cell_length_c    13.7    
_cell_angle_alpha 90
_cell_angle_beta  90
_cell_angle_gamma 90
_cell_volume      20674.15      

_symmetry_cell_setting          triclinic
_symmetry_space_group_name_Hall 'P 1'
_symmetry_space_group_name_H-M  'P 1'
_symmetry_Int_Tables_number     1

_symmetry_equiv_pos_as_xyz 'x,y,z'

loop_
_atom_site_label
_atom_site_type_symbol
_atom_site_fract_x
_atom_site_fract_y
_atom_site_fract_z
_atom_site_charge
C_Base_OH        C        0.0        0.018519        0.16947        0.2        
C_Base_OH        C        0.03125        0.074075        0.16947        0.2        
C_Base_CO        C        0.0        0.092592        0.16947        0.5        
C_Base_OH        C        0.03125        0.037037        0.16947        0.2        
C_Base_COOH        C        0.0        0.12963        0.16947        0.08        
C_Base_COOH        C        0.03125        0.185185        0.16947        0.08        
C_Base_COOH        C        0.0        0.203703        0.16947        0.08        
C_Base_CO        C        0.03125        0.148148        0.16947        0.5        
C_Base_COOH        C        0.0        0.24074099999999998        0.16947        0.08        
C_Base_COOH        C        0.03125        0.296297        0.16947        0.08        
C_Base_OH        C        0.0        0.314815        0.16947        0.2        
C_Base_CO        C        0.03125        0.259259        0.16947        0.5        
C_Base_CO        C        0.0        0.351852        0.16947        0.5        
C_Base_COOH        C        0.03125        0.407408        0.16947        0.08        
C_Base_COOH        C        0.0        0.425925        0.16947        0.08        
C_Base_CO        C        0.03125        0.37037        0.16947        0.5        
C_Base_OH        C        0.0        0.46296300000000007        0.16947        0.2        
C_Base_COOH        C        0.03125        0.518519        0.16947        0.08        
C_Base_OH        C        0.0        0.537037        0.16947        0.2        
C_Base_CO        C        0.03125        0.481481        0.16947        0.5        
C_Base_COOH        C        0.0        0.574075        0.16947        0.08        
C_Base_COOH        C        0.03125        0.62963        0.16947        0.08        
C_Base_CO        C        0.0        0.648148        0.16947        0.5        
C_Base_OH        C        0.03125        0.592592        0.16947        0.2        
C_Base_OH        C        0.0625        0.018519        0.16947        0.2        
C_Base_OH        C        0.09375        0.074075        0.16947        0.2        
C_Base_CO        C        0.0625        0.092592        0.16947        0.5        
C_Base_OH        C        0.09375        0.037037        0.16947        0.2        
C_Base_COOH        C        0.0625        0.12963        0.16947        0.08        
C_Base_COOH        C        0.09375        0.185185        0.16947        0.08        
C_Base_COOH        C        0.0625        0.203703        0.16947        0.08        
C_Base_CO        C        0.09375        0.148148        0.16947        0.5        
C_Base_COOH        C        0.0625        0.24074099999999998        0.16947        0.08        
C_Base_COOH        C        0.09375        0.296297        0.16947        0.08        
C_Base_OH        C        0.0625        0.314815        0.16947        0.2        
C_Base_CO        C        0.09375        0.259259        0.16947        0.5        
C_Base_CO        C        0.0625        0.351852        0.16947        0.5        
C_Base_COOH        C        0.09375        0.407408        0.16947        0.08        
C_Base_COOH        C        0.0625        0.425925        0.16947        0.08        
C_Base_CO        C        0.09375        0.37037        0.16947        0.5        
C_Base_OH        C        0.0625        0.46296300000000007        0.16947        0.2        
C_Base_COOH        C        0.09375        0.518519        0.16947        0.08        
C_Base_OH        C        0.0625        0.537037        0.16947        0.2        
C_Base_CO        C        0.09375        0.481481        0.16947        0.5        
C_Base_COOH        C        0.0625        0.574075        0.16947        0.08        
C_Base_COOH        C        0.09375        0.62963        0.16947        0.08        
C_Base_CO        C        0.0625        0.648148        0.16947        0.5        
C_Base_OH        C        0.09375        0.592592        0.16947        0.2        
C1        C        0.125        0.018519        0.16947        0        
C2        C        0.15625        0.074075        0.16947        0        
C3        C        0.125        0.092592        0.16947        0        
C4        C        0.15625        0.037037        0.16947        0        
C1        C        0.125        0.12963        0.16947        0        
C2        C        0.15625        0.185185        0.16947        0        
C3        C        0.125        0.203703        0.16947        0        
C4        C        0.15625        0.148148        0.16947        0        
C1        C        0.125        0.24074099999999998        0.16947        0        
C2        C        0.15625        0.296297        0.16947        0        
C3        C        0.125        0.314815        0.16947        0        
C4        C        0.15625        0.259259        0.16947        0        
C1        C        0.125        0.351852        0.16947        0        
C2        C        0.15625        0.407408        0.16947        0        
C3        C        0.125        0.425925        0.16947        0        
C4        C        0.15625        0.37037        0.16947        0        
C1        C        0.125        0.46296300000000007        0.16947        0        
C2        C        0.15625        0.518519        0.16947        0        
C3        C        0.125        0.537037        0.16947        0        
C4        C        0.15625        0.481481        0.16947        0        
C1        C        0.125        0.574075        0.16947        0        
C2        C        0.15625        0.62963        0.16947        0        
C3        C        0.125        0.648148        0.16947        0        
C4        C        0.15625        0.592592        0.16947        0        
C1        C        0.1875        0.018519        0.16947        0        
C2        C        0.21875        0.074075        0.16947        0        
C3        C        0.1875        0.092592        0.16947        0        
C4        C        0.21875        0.037037        0.16947        0        
C1        C        0.1875        0.12963        0.16947        0        
C2        C        0.21875        0.185185        0.16947        0        
C3        C        0.1875        0.203703        0.16947        0        
C4        C        0.21875        0.148148        0.16947        0        
C1        C        0.1875        0.24074099999999998        0.16947        0        
C2        C        0.21875        0.296297        0.16947        0        
C3        C        0.1875        0.314815        0.16947        0        
C4        C        0.21875        0.259259        0.16947        0        
C1        C        0.1875        0.351852        0.16947        0        
C2        C        0.21875        0.407408        0.16947        0        
C3        C        0.1875        0.425925        0.16947        0        
C4        C        0.21875        0.37037        0.16947        0        
C1        C        0.1875        0.46296300000000007        0.16947        0        
C2        C        0.21875        0.518519        0.16947        0        
C3        C        0.1875        0.537037        0.16947        0        
C4        C        0.21875        0.481481        0.16947        0        
C1        C        0.1875        0.574075        0.16947        0        
C2        C        0.21875        0.62963        0.16947        0        
C3        C        0.1875        0.648148        0.16947        0        
C4        C        0.21875        0.592592        0.16947        0        
C1        C        0.25        0.018519        0.16947        0        
C2        C        0.28125        0.074075        0.16947        0        
C3        C        0.25        0.092592        0.16947        0        
C4        C        0.28125        0.037037        0.16947        0        
C1        C        0.25        0.12963        0.16947        0        
C2        C        0.28125        0.185185        0.16947        0        
C3        C        0.25        0.203703        0.16947        0        
C4        C        0.28125        0.148148        0.16947        0        
C1        C        0.25        0.24074099999999998        0.16947        0        
C2        C        0.28125        0.296297        0.16947        0        
C3        C        0.25        0.314815        0.16947        0        
C4        C        0.28125        0.259259        0.16947        0        
C1        C        0.25        0.351852        0.16947        0        
C2        C        0.28125        0.407408        0.16947        0        
C3        C        0.25        0.425925        0.16947        0        
C4        C        0.28125        0.37037        0.16947        0        
C1        C        0.25        0.46296300000000007        0.16947        0        
C2        C        0.28125        0.518519        0.16947        0        
C3        C        0.25        0.537037        0.16947        0        
C4        C        0.28125        0.481481        0.16947        0        
C1        C        0.25        0.574075        0.16947        0        
C2        C        0.28125        0.62963        0.16947        0        
C3        C        0.25        0.648148        0.16947        0        
C4        C        0.28125        0.592592        0.16947        0        
C1        C        0.3125        0.018519        0.16947        0        
C2        C        0.34375        0.074075        0.16947        0        
C3        C        0.3125        0.092592        0.16947        0        
C4        C        0.34375        0.037037        0.16947        0        
C1        C        0.3125        0.12963        0.16947        0        
C2        C        0.34375        0.185185        0.16947        0        
C3        C        0.3125        0.203703        0.16947        0        
C4        C        0.34375        0.148148        0.16947        0        
C1        C        0.3125        0.24074099999999998        0.16947        0        
C2        C        0.34375        0.296297        0.16947        0        
C3        C        0.3125        0.314815        0.16947        0        
C4        C        0.34375        0.259259        0.16947        0        
C1        C        0.3125        0.351852        0.16947        0        
C2        C        0.34375        0.407408        0.16947        0        
C3        C        0.3125        0.425925        0.16947        0        
C4        C        0.34375        0.37037        0.16947        0        
C1        C        0.3125        0.46296300000000007        0.16947        0        
C2        C        0.34375        0.518519        0.16947        0        
C3        C        0.3125        0.537037        0.16947        0        
C4        C        0.34375        0.481481        0.16947        0        
C1        C        0.3125        0.574075        0.16947        0        
C2        C        0.34375        0.62963        0.16947        0        
C3        C        0.3125        0.648148        0.16947        0        
C4        C        0.34375        0.592592        0.16947        0        
C1        C        0.375        0.018519        0.16947        0        
C2        C        0.40625        0.074075        0.16947        0        
C3        C        0.375        0.092592        0.16947        0        
C4        C        0.40625        0.037037        0.16947        0        
C1        C        0.375        0.12963        0.16947        0        
C2        C        0.40625        0.185185        0.16947        0        
C3        C        0.375        0.203703        0.16947        0        
C4        C        0.40625        0.148148        0.16947        0        
C1        C        0.375        0.24074099999999998        0.16947        0        
C2        C        0.40625        0.296297        0.16947        0        
C3        C        0.375        0.314815        0.16947        0        
C4        C        0.40625        0.259259        0.16947        0        
C1        C        0.375        0.351852        0.16947        0        
C2        C        0.40625        0.407408        0.16947        0        
C3        C        0.375        0.425925        0.16947        0        
C4        C        0.40625        0.37037        0.16947        0        
C1        C        0.375        0.46296300000000007        0.16947        0        
C2        C        0.40625        0.518519        0.16947        0        
C3        C        0.375        0.537037        0.16947        0        
C4        C        0.40625        0.481481        0.16947        0        
C1        C        0.375        0.574075        0.16947        0        
C2        C        0.40625        0.62963        0.16947        0        
C3        C        0.375        0.648148        0.16947        0        
C4        C        0.40625        0.592592        0.16947        0        
C1        C        0.4375        0.018519        0.16947        0        
C2        C        0.46875        0.074075        0.16947        0        
C3        C        0.4375        0.092592        0.16947        0        
C4        C        0.46875        0.037037        0.16947        0        
C1        C        0.4375        0.12963        0.16947        0        
C2        C        0.46875        0.185185        0.16947        0        
C3        C        0.4375        0.203703        0.16947        0        
C4        C        0.46875        0.148148        0.16947        0        
C1        C        0.4375        0.24074099999999998        0.16947        0        
C2        C        0.46875        0.296297        0.16947        0        
C3        C        0.4375        0.314815        0.16947        0        
C4        C        0.46875        0.259259        0.16947        0        
C1        C        0.4375        0.351852        0.16947        0        
C2        C        0.46875        0.407408        0.16947        0        
C3        C        0.4375        0.425925        0.16947        0        
C4        C        0.46875        0.37037        0.16947        0        
C1        C        0.4375        0.46296300000000007        0.16947        0        
C2        C        0.46875        0.518519        0.16947        0        
C3        C        0.4375        0.537037        0.16947        0        
C4        C        0.46875        0.481481        0.16947        0        
C1        C        0.4375        0.574075        0.16947        0        
C2        C        0.46875        0.62963        0.16947        0        
C3        C        0.4375        0.648148        0.16947        0        
C4        C        0.46875        0.592592        0.16947        0        
C1        C        0.5        0.018519        0.16947        0        
C2        C        0.53125        0.074075        0.16947        0        
C3        C        0.5        0.092592        0.16947        0        
C4        C        0.53125        0.037037        0.16947        0        
C1        C        0.5        0.12963        0.16947        0        
C2        C        0.53125        0.185185        0.16947        0        
C3        C        0.5        0.203703        0.16947        0        
C4        C        0.53125        0.148148        0.16947        0        
C1        C        0.5        0.24074099999999998        0.16947        0        
C2        C        0.53125        0.296297        0.16947        0        
C3        C        0.5        0.314815        0.16947        0        
C4        C        0.53125        0.259259        0.16947        0        
C1        C        0.5        0.351852        0.16947        0        
C2        C        0.53125        0.407408        0.16947        0        
C3        C        0.5        0.425925        0.16947        0        
C4        C        0.53125        0.37037        0.16947        0        
C1        C        0.5        0.46296300000000007        0.16947        0        
C2        C        0.53125        0.518519        0.16947        0        
C3        C        0.5        0.537037        0.16947        0        
C4        C        0.53125        0.481481        0.16947        0        
C1        C        0.5        0.574075        0.16947        0        
C2        C        0.53125        0.62963        0.16947        0        
C3        C        0.5        0.648148        0.16947        0        
C4        C        0.53125        0.592592        0.16947        0        
C1        C        0.5625        0.018519        0.16947        0        
C2        C        0.59375        0.074075        0.16947        0        
C3        C        0.5625        0.092592        0.16947        0        
C4        C        0.59375        0.037037        0.16947        0        
C1        C        0.5625        0.12963        0.16947        0        
C2        C        0.59375        0.185185        0.16947        0        
C3        C        0.5625        0.203703        0.16947        0        
C4        C        0.59375        0.148148        0.16947        0        
C1        C        0.5625        0.24074099999999998        0.16947        0        
C2        C        0.59375        0.296297        0.16947        0        
C3        C        0.5625        0.314815        0.16947        0        
C4        C        0.59375        0.259259        0.16947        0        
C1        C        0.5625        0.351852        0.16947        0        
C2        C        0.59375        0.407408        0.16947        0        
C3        C        0.5625        0.425925        0.16947        0        
C4        C        0.59375        0.37037        0.16947        0        
C1        C        0.5625        0.46296300000000007        0.16947        0        
C2        C        0.59375        0.518519        0.16947        0        
C3        C        0.5625        0.537037        0.16947        0        
C4        C        0.59375        0.481481        0.16947        0        
C1        C        0.5625        0.574075        0.16947        0        
C2        C        0.59375        0.62963        0.16947        0        
C3        C        0.5625        0.648148        0.16947        0        
C4        C        0.59375        0.592592        0.16947        0        
C1        C        0.625        0.018519        0.16947        0        
C2        C        0.65625        0.074075        0.16947        0        
C3        C        0.625        0.092592        0.16947        0        
C4        C        0.65625        0.037037        0.16947        0        
C1        C        0.625        0.12963        0.16947        0        
C2        C        0.65625        0.185185        0.16947        0        
C3        C        0.625        0.203703        0.16947        0        
C4        C        0.65625        0.148148        0.16947        0        
C1        C        0.625        0.24074099999999998        0.16947        0        
C2        C        0.65625        0.296297        0.16947        0        
C3        C        0.625        0.314815        0.16947        0        
C4        C        0.65625        0.259259        0.16947        0        
C1        C        0.625        0.351852        0.16947        0        
C2        C        0.65625        0.407408        0.16947        0        
C3        C        0.625        0.425925        0.16947        0        
C4        C        0.65625        0.37037        0.16947        0        
C1        C        0.625        0.46296300000000007        0.16947        0        
C2        C        0.65625        0.518519        0.16947        0        
C3        C        0.625        0.537037        0.16947        0        
C4        C        0.65625        0.481481        0.16947        0        
C1        C        0.625        0.574075        0.16947        0        
C2        C        0.65625        0.62963        0.16947        0        
C3        C        0.625        0.648148        0.16947        0        
C4        C        0.65625        0.592592        0.16947        0        
C1        C        0.6875        0.018519        0.16947        0        
C2        C        0.71875        0.074075        0.16947        0        
C3        C        0.6875        0.092592        0.16947        0        
C4        C        0.71875        0.037037        0.16947        0        
C1        C        0.6875        0.12963        0.16947        0        
C2        C        0.71875        0.185185        0.16947        0        
C3        C        0.6875        0.203703        0.16947        0        
C4        C        0.71875        0.148148        0.16947        0        
C1        C        0.6875        0.24074099999999998        0.16947        0        
C2        C        0.71875        0.296297        0.16947        0        
C3        C        0.6875        0.314815        0.16947        0        
C4        C        0.71875        0.259259        0.16947        0        
C1        C        0.6875        0.351852        0.16947        0        
C2        C        0.71875        0.407408        0.16947        0        
C3        C        0.6875        0.425925        0.16947        0        
C4        C        0.71875        0.37037        0.16947        0        
C1        C        0.6875        0.46296300000000007        0.16947        0        
C2        C        0.71875        0.518519        0.16947        0        
C3        C        0.6875        0.537037        0.16947        0        
C4        C        0.71875        0.481481        0.16947        0        
C1        C        0.6875        0.574075        0.16947        0        
C2        C        0.71875        0.62963        0.16947        0        
C3        C        0.6875        0.648148        0.16947        0        
C4        C        0.71875        0.592592        0.16947        0        
C1        C        0.75        0.018519        0.16947        0        
C2        C        0.78125        0.074075        0.16947        0        
C3        C        0.75        0.092592        0.16947        0        
C4        C        0.78125        0.037037        0.16947        0        
C1        C        0.75        0.12963        0.16947        0        
C2        C        0.78125        0.185185        0.16947        0        
C3        C        0.75        0.203703        0.16947        0        
C4        C        0.78125        0.148148        0.16947        0        
C1        C        0.75        0.24074099999999998        0.16947        0        
C2        C        0.78125        0.296297        0.16947        0        
C3        C        0.75        0.314815        0.16947        0        
C4        C        0.78125        0.259259        0.16947        0        
C1        C        0.75        0.351852        0.16947        0        
C2        C        0.78125        0.407408        0.16947        0        
C3        C        0.75        0.425925        0.16947        0        
C4        C        0.78125        0.37037        0.16947        0        
C1        C        0.75        0.46296300000000007        0.16947        0        
C2        C        0.78125        0.518519        0.16947        0        
C3        C        0.75        0.537037        0.16947        0        
C4        C        0.78125        0.481481        0.16947        0        
C1        C        0.75        0.574075        0.16947        0        
C2        C        0.78125        0.62963        0.16947        0        
C3        C        0.75        0.648148        0.16947        0        
C4        C        0.78125        0.592592        0.16947        0        
C1        C        0.8125        0.018519        0.16947        0        
C2        C        0.84375        0.074075        0.16947        0        
C3        C        0.8125        0.092592        0.16947        0        
C4        C        0.84375        0.037037        0.16947        0        
C1        C        0.8125        0.12963        0.16947        0        
C2        C        0.84375        0.185185        0.16947        0        
C3        C        0.8125        0.203703        0.16947        0        
C4        C        0.84375        0.148148        0.16947        0        
C1        C        0.8125        0.24074099999999998        0.16947        0        
C2        C        0.84375        0.296297        0.16947        0        
C3        C        0.8125        0.314815        0.16947        0        
C4        C        0.84375        0.259259        0.16947        0        
C1        C        0.8125        0.351852        0.16947        0        
C2        C        0.84375        0.407408        0.16947        0        
C3        C        0.8125        0.425925        0.16947        0        
C4        C        0.84375        0.37037        0.16947        0        
C1        C        0.8125        0.46296300000000007        0.16947        0        
C2        C        0.84375        0.518519        0.16947        0        
C3        C        0.8125        0.537037        0.16947        0        
C4        C        0.84375        0.481481        0.16947        0        
C1        C        0.8125        0.574075        0.16947        0        
C2        C        0.84375        0.62963        0.16947        0        
C3        C        0.8125        0.648148        0.16947        0        
C4        C        0.84375        0.592592        0.16947        0        
C1        C        0.875        0.018519        0.16947        0        
C2        C        0.9062500000000001        0.074075        0.16947        0        
C3        C        0.875        0.092592        0.16947        0        
C4        C        0.9062500000000001        0.037037        0.16947        0        
C1        C        0.875        0.12963        0.16947        0        
C2        C        0.9062500000000001        0.185185        0.16947        0        
C3        C        0.875        0.203703        0.16947        0        
C4        C        0.9062500000000001        0.148148        0.16947        0        
C1        C        0.875        0.24074099999999998        0.16947        0        
C2        C        0.9062500000000001        0.296297        0.16947        0        
C3        C        0.875        0.314815        0.16947        0        
C4        C        0.9062500000000001        0.259259        0.16947        0        
C1        C        0.875        0.351852        0.16947        0        
C2        C        0.9062500000000001        0.407408        0.16947        0        
C3        C        0.875        0.425925        0.16947        0        
C4        C        0.9062500000000001        0.37037        0.16947        0        
C1        C        0.875        0.46296300000000007        0.16947        0        
C2        C        0.9062500000000001        0.518519        0.16947        0        
C3        C        0.875        0.537037        0.16947        0        
C4        C        0.9062500000000001        0.481481        0.16947        0        
C1        C        0.875        0.574075        0.16947        0        
C2        C        0.9062500000000001        0.62963        0.16947        0        
C3        C        0.875        0.648148        0.16947        0        
C4        C        0.9062500000000001        0.592592        0.16947        0        
C1        C        0.9375        0.018519        0.16947        0        
C2        C        0.9687500000000001        0.074075        0.16947        0        
C3        C        0.9375        0.092592        0.16947        0        
C4        C        0.9687500000000001        0.037037        0.16947        0        
C1        C        0.9375        0.12963        0.16947        0        
C2        C        0.9687500000000001        0.185185        0.16947        0        
C3        C        0.9375        0.203703        0.16947        0        
C4        C        0.9687500000000001        0.148148        0.16947        0        
C1        C        0.9375        0.24074099999999998        0.16947        0        
C2        C        0.9687500000000001        0.296297        0.16947        0        
C3        C        0.9375        0.314815        0.16947        0        
C4        C        0.9687500000000001        0.259259        0.16947        0        
C1        C        0.9375        0.351852        0.16947        0        
C2        C        0.9687500000000001        0.407408        0.16947        0        
C3        C        0.9375        0.425925        0.16947        0        
C4        C        0.9687500000000001        0.37037        0.16947        0        
C1        C        0.9375        0.46296300000000007        0.16947        0        
C2        C        0.9687500000000001        0.518519        0.16947        0        
C3        C        0.9375        0.537037        0.16947        0        
C4        C        0.9687500000000001        0.481481        0.16947        0        
C1        C        0.9375        0.574075        0.16947        0        
C2        C        0.9687500000000001        0.62963        0.16947        0        
C3        C        0.9375        0.648148        0.16947        0        
C4        C        0.9687500000000001        0.592592        0.16947        0        
C1        C        0.0        0.685186        0.16947        0        
C1        C        0.0625        0.685186        0.16947        0        
C1        C        0.125        0.685186        0.16947        0        
C1        C        0.1875        0.685186        0.16947        0        
C1        C        0.25        0.685186        0.16947        0        
C1        C        0.3125        0.685186        0.16947        0        
C1        C        0.375        0.685186        0.16947        0        
C1        C        0.4375        0.685186        0.16947        0        
C1        C        0.5        0.685186        0.16947        0        
C1        C        0.5625        0.685186        0.16947        0        
C1        C        0.625        0.685186        0.16947        0        
C1        C        0.6875        0.685186        0.16947        0        
C1        C        0.75        0.685186        0.16947        0        
C1        C        0.8125        0.685186        0.16947        0        
C1        C        0.875        0.685186        0.16947        0        
C1        C        0.9375        0.685186        0.16947        0        
C2        C        0.03125        0.740741        0.16947        0        
C2        C        0.09375        0.740741        0.16947        0        
C2        C        0.15625        0.740741        0.16947        0        
C2        C        0.21875        0.740741        0.16947        0        
C2        C        0.28125        0.740741        0.16947        0        
C2        C        0.34375        0.740741        0.16947        0        
C2        C        0.40625        0.740741        0.16947        0        
C2        C        0.46875        0.740741        0.16947        0        
C2        C        0.53125        0.740741        0.16947        0        
C2        C        0.59375        0.740741        0.16947        0        
C2        C        0.65625        0.740741        0.16947        0        
C2        C        0.71875        0.740741        0.16947        0        
C2        C        0.78125        0.740741        0.16947        0        
C2        C        0.84375        0.740741        0.16947        0        
C2        C        0.9062500000000001        0.740741        0.16947        0        
C2        C        0.9687500000000001        0.740741        0.16947        0        
C3        C        0.0        0.759259        0.16947        0        
C3        C        0.0625        0.759259        0.16947        0        
C3        C        0.125        0.759259        0.16947        0        
C3        C        0.1875        0.759259        0.16947        0        
C3        C        0.25        0.759259        0.16947        0        
C3        C        0.3125        0.759259        0.16947        0        
C3        C        0.375        0.759259        0.16947        0        
C3        C        0.4375        0.759259        0.16947        0        
C3        C        0.5        0.759259        0.16947        0        
C3        C        0.5625        0.759259        0.16947        0        
C3        C        0.625        0.759259        0.16947        0        
C3        C        0.6875        0.759259        0.16947        0        
C3        C        0.75        0.759259        0.16947        0        
C3        C        0.8125        0.759259        0.16947        0        
C3        C        0.875        0.759259        0.16947        0        
C3        C        0.9375        0.759259        0.16947        0        
C4        C        0.03125        0.703703        0.16947        0        
C4        C        0.09375        0.703703        0.16947        0        
C4        C        0.15625        0.703703        0.16947        0        
C4        C        0.21875        0.703703        0.16947        0        
C4        C        0.28125        0.703703        0.16947        0        
C4        C        0.34375        0.703703        0.16947        0        
C4        C        0.40625        0.703703        0.16947        0        
C4        C        0.46875        0.703703        0.16947        0        
C4        C        0.53125        0.703703        0.16947        0        
C4        C        0.59375        0.703703        0.16947        0        
C4        C        0.65625        0.703703        0.16947        0        
C4        C        0.71875        0.703703        0.16947        0        
C4        C        0.78125        0.703703        0.16947        0        
C4        C        0.84375        0.703703        0.16947        0        
C4        C        0.9062500000000001        0.703703        0.16947        0        
C4        C        0.9687500000000001        0.703703        0.16947        0        
C1        C        0.0        0.796297        0.16947        0        
C1        C        0.0625        0.796297        0.16947        0        
C1        C        0.125        0.796297        0.16947        0        
C1        C        0.1875        0.796297        0.16947        0        
C1        C        0.25        0.796297        0.16947        0        
C1        C        0.3125        0.796297        0.16947        0        
C1        C        0.375        0.796297        0.16947        0        
C1        C        0.4375        0.796297        0.16947        0        
C1        C        0.5        0.796297        0.16947        0        
C1        C        0.5625        0.796297        0.16947        0        
C1        C        0.625        0.796297        0.16947        0        
C1        C        0.6875        0.796297        0.16947        0        
C1        C        0.75        0.796297        0.16947        0        
C1        C        0.8125        0.796297        0.16947        0        
C1        C        0.875        0.796297        0.16947        0        
C1        C        0.9375        0.796297        0.16947        0        
C2        C        0.03125        0.851852        0.16947        0        
C2        C        0.09375        0.851852        0.16947        0        
C2        C        0.15625        0.851852        0.16947        0        
C2        C        0.21875        0.851852        0.16947        0        
C2        C        0.28125        0.851852        0.16947        0        
C2        C        0.34375        0.851852        0.16947        0        
C2        C        0.40625        0.851852        0.16947        0        
C2        C        0.46875        0.851852        0.16947        0        
C2        C        0.53125        0.851852        0.16947        0        
C2        C        0.59375        0.851852        0.16947        0        
C2        C        0.65625        0.851852        0.16947        0        
C2        C        0.71875        0.851852        0.16947        0        
C2        C        0.78125        0.851852        0.16947        0        
C2        C        0.84375        0.851852        0.16947        0        
C2        C        0.9062500000000001        0.851852        0.16947        0        
C2        C        0.9687500000000001        0.851852        0.16947        0        
C3        C        0.0        0.87037        0.16947        0        
C3        C        0.0625        0.87037        0.16947        0        
C3        C        0.125        0.87037        0.16947        0        
C3        C        0.1875        0.87037        0.16947        0        
C3        C        0.25        0.87037        0.16947        0        
C3        C        0.3125        0.87037        0.16947        0        
C3        C        0.375        0.87037        0.16947        0        
C3        C        0.4375        0.87037        0.16947        0        
C3        C        0.5        0.87037        0.16947        0        
C3        C        0.5625        0.87037        0.16947        0        
C3        C        0.625        0.87037        0.16947        0        
C3        C        0.6875        0.87037        0.16947        0        
C3        C        0.75        0.87037        0.16947        0        
C3        C        0.8125        0.87037        0.16947        0        
C3        C        0.875        0.87037        0.16947        0        
C3        C        0.9375        0.87037        0.16947        0        
C4        C        0.03125        0.814814        0.16947        0        
C4        C        0.09375        0.814814        0.16947        0        
C4        C        0.15625        0.814814        0.16947        0        
C4        C        0.21875        0.814814        0.16947        0        
C4        C        0.28125        0.814814        0.16947        0        
C4        C        0.34375        0.814814        0.16947        0        
C4        C        0.40625        0.814814        0.16947        0        
C4        C        0.46875        0.814814        0.16947        0        
C4        C        0.53125        0.814814        0.16947        0        
C4        C        0.59375        0.814814        0.16947        0        
C4        C        0.65625        0.814814        0.16947        0        
C4        C        0.71875        0.814814        0.16947        0        
C4        C        0.78125        0.814814        0.16947        0        
C4        C        0.84375        0.814814        0.16947        0        
C4        C        0.9062500000000001        0.814814        0.16947        0        
C4        C        0.9687500000000001        0.814814        0.16947        0        
C1        C        0.0        0.907408        0.16947        0        
C1        C        0.0625        0.907408        0.16947        0        
C1        C        0.125        0.907408        0.16947        0        
C1        C        0.1875        0.907408        0.16947        0        
C1        C        0.25        0.907408        0.16947        0        
C1        C        0.3125        0.907408        0.16947        0        
C1        C        0.375        0.907408        0.16947        0        
C1        C        0.4375        0.907408        0.16947        0        
C1        C        0.5        0.907408        0.16947        0        
C1        C        0.5625        0.907408        0.16947        0        
C1        C        0.625        0.907408        0.16947        0        
C1        C        0.6875        0.907408        0.16947        0        
C1        C        0.75        0.907408        0.16947        0        
C1        C        0.8125        0.907408        0.16947        0        
C1        C        0.875        0.907408        0.16947        0        
C1        C        0.9375        0.907408        0.16947        0        
C2        C        0.03125        0.962963        0.16947        0        
C2        C        0.09375        0.962963        0.16947        0        
C2        C        0.15625        0.962963        0.16947        0        
C2        C        0.21875        0.962963        0.16947        0        
C2        C        0.28125        0.962963        0.16947        0        
C2        C        0.34375        0.962963        0.16947        0        
C2        C        0.40625        0.962963        0.16947        0        
C2        C        0.46875        0.962963        0.16947        0        
C2        C        0.53125        0.962963        0.16947        0        
C2        C        0.59375        0.962963        0.16947        0        
C2        C        0.65625        0.962963        0.16947        0        
C2        C        0.71875        0.962963        0.16947        0        
C2        C        0.78125        0.962963        0.16947        0        
C2        C        0.84375        0.962963        0.16947        0        
C2        C        0.9062500000000001        0.962963        0.16947        0        
C2        C        0.9687500000000001        0.962963        0.16947        0        
C3        C        0.0        0.9814809999999999        0.16947        0        
C3        C        0.0625        0.9814809999999999        0.16947        0        
C3        C        0.125        0.9814809999999999        0.16947        0        
C3        C        0.1875        0.9814809999999999        0.16947        0        
C3        C        0.25        0.9814809999999999        0.16947        0        
C3        C        0.3125        0.9814809999999999        0.16947        0        
C3        C        0.375        0.9814809999999999        0.16947        0        
C3        C        0.4375        0.9814809999999999        0.16947        0        
C3        C        0.5        0.9814809999999999        0.16947        0        
C3        C        0.5625        0.9814809999999999        0.16947        0        
C3        C        0.625        0.9814809999999999        0.16947        0        
C3        C        0.6875        0.9814809999999999        0.16947        0        
C3        C        0.75        0.9814809999999999        0.16947        0        
C3        C        0.8125        0.9814809999999999        0.16947        0        
C3        C        0.875        0.9814809999999999        0.16947        0        
C3        C        0.9375        0.9814809999999999        0.16947        0        
C4        C        0.03125        0.925925        0.16947        0        
C4        C        0.09375        0.925925        0.16947        0        
C4        C        0.15625        0.925925        0.16947        0        
C4        C        0.21875        0.925925        0.16947        0        
C4        C        0.28125        0.925925        0.16947        0        
C4        C        0.34375        0.925925        0.16947        0        
C4        C        0.40625        0.925925        0.16947        0        
C4        C        0.46875        0.925925        0.16947        0        
C4        C        0.53125        0.925925        0.16947        0        
C4        C        0.59375        0.925925        0.16947        0        
C4        C        0.65625        0.925925        0.16947        0        
C4        C        0.71875        0.925925        0.16947        0        
C4        C        0.78125        0.925925        0.16947        0        
C4        C        0.84375        0.925925        0.16947        0        
C4        C        0.9062500000000001        0.925925        0.16947        0        
C4        C        0.9687500000000001        0.925925        0.16947        0        
C1        C        0.0        0.018519        0.4139955474452554        0        
C2        C        0.03125        0.074075        0.4139955474452554        0        
C3        C        0.0        0.092592        0.4139955474452554        0        
C4        C        0.03125        0.037037        0.4139955474452554        0        
C1        C        0.0        0.12963        0.4139955474452554        0        
C2        C        0.03125        0.185185        0.4139955474452554        0        
C3        C        0.0        0.203703        0.4139955474452554        0        
C4        C        0.03125        0.148148        0.4139955474452554        0        
C1        C        0.0        0.24074099999999998        0.4139955474452554        0        
C2        C        0.03125        0.296297        0.4139955474452554        0        
C3        C        0.0        0.314815        0.4139955474452554        0        
C4        C        0.03125        0.259259        0.4139955474452554        0        
C1        C        0.0        0.351852        0.4139955474452554        0        
C2        C        0.03125        0.407408        0.4139955474452554        0        
C3        C        0.0        0.425925        0.4139955474452554        0        
C4        C        0.03125        0.37037        0.4139955474452554        0        
C1        C        0.0        0.46296300000000007        0.4139955474452554        0        
C2        C        0.03125        0.518519        0.4139955474452554        0        
C3        C        0.0        0.537037        0.4139955474452554        0        
C4        C        0.03125        0.481481        0.4139955474452554        0        
C1        C        0.0        0.574075        0.4139955474452554        0        
C2        C        0.03125        0.62963        0.4139955474452554        0        
C3        C        0.0        0.648148        0.4139955474452554        0        
C4        C        0.03125        0.592592        0.4139955474452554        0        
C1        C        0.0625        0.018519        0.4139955474452554        0        
C2        C        0.09375        0.074075        0.4139955474452554        0        
C3        C        0.0625        0.092592        0.4139955474452554        0        
C4        C        0.09375        0.037037        0.4139955474452554        0        
C1        C        0.0625        0.12963        0.4139955474452554        0        
C2        C        0.09375        0.185185        0.4139955474452554        0        
C3        C        0.0625        0.203703        0.4139955474452554        0        
C4        C        0.09375        0.148148        0.4139955474452554        0        
C1        C        0.0625        0.24074099999999998        0.4139955474452554        0        
C2        C        0.09375        0.296297        0.4139955474452554        0        
C3        C        0.0625        0.314815        0.4139955474452554        0        
C4        C        0.09375        0.259259        0.4139955474452554        0        
C1        C        0.0625        0.351852        0.4139955474452554        0        
C2        C        0.09375        0.407408        0.4139955474452554        0        
C3        C        0.0625        0.425925        0.4139955474452554        0        
C4        C        0.09375        0.37037        0.4139955474452554        0        
C1        C        0.0625        0.46296300000000007        0.4139955474452554        0        
C2        C        0.09375        0.518519        0.4139955474452554        0        
C3        C        0.0625        0.537037        0.4139955474452554        0        
C4        C        0.09375        0.481481        0.4139955474452554        0        
C1        C        0.0625        0.574075        0.4139955474452554        0        
C2        C        0.09375        0.62963        0.4139955474452554        0        
C3        C        0.0625        0.648148        0.4139955474452554        0        
C4        C        0.09375        0.592592        0.4139955474452554        0        
C1        C        0.125        0.018519        0.4139955474452554        0        
C2        C        0.15625        0.074075        0.4139955474452554        0        
C3        C        0.125        0.092592        0.4139955474452554        0        
C4        C        0.15625        0.037037        0.4139955474452554        0        
C1        C        0.125        0.12963        0.4139955474452554        0        
C2        C        0.15625        0.185185        0.4139955474452554        0        
C3        C        0.125        0.203703        0.4139955474452554        0        
C4        C        0.15625        0.148148        0.4139955474452554        0        
C1        C        0.125        0.24074099999999998        0.4139955474452554        0        
C2        C        0.15625        0.296297        0.4139955474452554        0        
C3        C        0.125        0.314815        0.4139955474452554        0        
C4        C        0.15625        0.259259        0.4139955474452554        0        
C1        C        0.125        0.351852        0.4139955474452554        0        
C2        C        0.15625        0.407408        0.4139955474452554        0        
C3        C        0.125        0.425925        0.4139955474452554        0        
C4        C        0.15625        0.37037        0.4139955474452554        0        
C1        C        0.125        0.46296300000000007        0.4139955474452554        0        
C2        C        0.15625        0.518519        0.4139955474452554        0        
C3        C        0.125        0.537037        0.4139955474452554        0        
C4        C        0.15625        0.481481        0.4139955474452554        0        
C1        C        0.125        0.574075        0.4139955474452554        0        
C2        C        0.15625        0.62963        0.4139955474452554        0        
C3        C        0.125        0.648148        0.4139955474452554        0        
C4        C        0.15625        0.592592        0.4139955474452554        0        
C1        C        0.1875        0.018519        0.4139955474452554        0        
C2        C        0.21875        0.074075        0.4139955474452554        0        
C3        C        0.1875        0.092592        0.4139955474452554        0        
C4        C        0.21875        0.037037        0.4139955474452554        0        
C1        C        0.1875        0.12963        0.4139955474452554        0        
C2        C        0.21875        0.185185        0.4139955474452554        0        
C3        C        0.1875        0.203703        0.4139955474452554        0        
C4        C        0.21875        0.148148        0.4139955474452554        0        
C1        C        0.1875        0.24074099999999998        0.4139955474452554        0        
C2        C        0.21875        0.296297        0.4139955474452554        0        
C3        C        0.1875        0.314815        0.4139955474452554        0        
C4        C        0.21875        0.259259        0.4139955474452554        0        
C1        C        0.1875        0.351852        0.4139955474452554        0        
C2        C        0.21875        0.407408        0.4139955474452554        0        
C3        C        0.1875        0.425925        0.4139955474452554        0        
C4        C        0.21875        0.37037        0.4139955474452554        0        
C1        C        0.1875        0.46296300000000007        0.4139955474452554        0        
C2        C        0.21875        0.518519        0.4139955474452554        0        
C3        C        0.1875        0.537037        0.4139955474452554        0        
C4        C        0.21875        0.481481        0.4139955474452554        0        
C1        C        0.1875        0.574075        0.4139955474452554        0        
C2        C        0.21875        0.62963        0.4139955474452554        0        
C3        C        0.1875        0.648148        0.4139955474452554        0        
C4        C        0.21875        0.592592        0.4139955474452554        0        
C1        C        0.25        0.018519        0.4139955474452554        0        
C2        C        0.28125        0.074075        0.4139955474452554        0        
C3        C        0.25        0.092592        0.4139955474452554        0        
C4        C        0.28125        0.037037        0.4139955474452554        0        
C1        C        0.25        0.12963        0.4139955474452554        0        
C2        C        0.28125        0.185185        0.4139955474452554        0        
C3        C        0.25        0.203703        0.4139955474452554        0        
C4        C        0.28125        0.148148        0.4139955474452554        0        
C1        C        0.25        0.24074099999999998        0.4139955474452554        0        
C2        C        0.28125        0.296297        0.4139955474452554        0        
C3        C        0.25        0.314815        0.4139955474452554        0        
C4        C        0.28125        0.259259        0.4139955474452554        0        
C1        C        0.25        0.351852        0.4139955474452554        0        
C2        C        0.28125        0.407408        0.4139955474452554        0        
C3        C        0.25        0.425925        0.4139955474452554        0        
C4        C        0.28125        0.37037        0.4139955474452554        0        
C1        C        0.25        0.46296300000000007        0.4139955474452554        0        
C2        C        0.28125        0.518519        0.4139955474452554        0        
C3        C        0.25        0.537037        0.4139955474452554        0        
C4        C        0.28125        0.481481        0.4139955474452554        0        
C1        C        0.25        0.574075        0.4139955474452554        0        
C2        C        0.28125        0.62963        0.4139955474452554        0        
C3        C        0.25        0.648148        0.4139955474452554        0        
C4        C        0.28125        0.592592        0.4139955474452554        0        
C1        C        0.3125        0.018519        0.4139955474452554        0        
C2        C        0.34375        0.074075        0.4139955474452554        0        
C3        C        0.3125        0.092592        0.4139955474452554        0        
C4        C        0.34375        0.037037        0.4139955474452554        0        
C1        C        0.3125        0.12963        0.4139955474452554        0        
C2        C        0.34375        0.185185        0.4139955474452554        0        
C3        C        0.3125        0.203703        0.4139955474452554        0        
C4        C        0.34375        0.148148        0.4139955474452554        0        
C1        C        0.3125        0.24074099999999998        0.4139955474452554        0        
C2        C        0.34375        0.296297        0.4139955474452554        0        
C3        C        0.3125        0.314815        0.4139955474452554        0        
C4        C        0.34375        0.259259        0.4139955474452554        0        
C1        C        0.3125        0.351852        0.4139955474452554        0        
C2        C        0.34375        0.407408        0.4139955474452554        0        
C3        C        0.3125        0.425925        0.4139955474452554        0        
C4        C        0.34375        0.37037        0.4139955474452554        0        
C1        C        0.3125        0.46296300000000007        0.4139955474452554        0        
C2        C        0.34375        0.518519        0.4139955474452554        0        
C3        C        0.3125        0.537037        0.4139955474452554        0        
C4        C        0.34375        0.481481        0.4139955474452554        0        
C1        C        0.3125        0.574075        0.4139955474452554        0        
C2        C        0.34375        0.62963        0.4139955474452554        0        
C3        C        0.3125        0.648148        0.4139955474452554        0        
C4        C        0.34375        0.592592        0.4139955474452554        0        
C1        C        0.375        0.018519        0.4139955474452554        0        
C2        C        0.40625        0.074075        0.4139955474452554        0        
C3        C        0.375        0.092592        0.4139955474452554        0        
C4        C        0.40625        0.037037        0.4139955474452554        0        
C1        C        0.375        0.12963        0.4139955474452554        0        
C2        C        0.40625        0.185185        0.4139955474452554        0        
C3        C        0.375        0.203703        0.4139955474452554        0        
C4        C        0.40625        0.148148        0.4139955474452554        0        
C1        C        0.375        0.24074099999999998        0.4139955474452554        0        
C2        C        0.40625        0.296297        0.4139955474452554        0        
C3        C        0.375        0.314815        0.4139955474452554        0        
C4        C        0.40625        0.259259        0.4139955474452554        0        
C1        C        0.375        0.351852        0.4139955474452554        0        
C2        C        0.40625        0.407408        0.4139955474452554        0        
C3        C        0.375        0.425925        0.4139955474452554        0        
C4        C        0.40625        0.37037        0.4139955474452554        0        
C1        C        0.375        0.46296300000000007        0.4139955474452554        0        
C2        C        0.40625        0.518519        0.4139955474452554        0        
C3        C        0.375        0.537037        0.4139955474452554        0        
C4        C        0.40625        0.481481        0.4139955474452554        0        
C1        C        0.375        0.574075        0.4139955474452554        0        
C2        C        0.40625        0.62963        0.4139955474452554        0        
C3        C        0.375        0.648148        0.4139955474452554        0        
C4        C        0.40625        0.592592        0.4139955474452554        0        
C1        C        0.4375        0.018519        0.4139955474452554        0        
C2        C        0.46875        0.074075        0.4139955474452554        0        
C3        C        0.4375        0.092592        0.4139955474452554        0        
C4        C        0.46875        0.037037        0.4139955474452554        0        
C1        C        0.4375        0.12963        0.4139955474452554        0        
C2        C        0.46875        0.185185        0.4139955474452554        0        
C3        C        0.4375        0.203703        0.4139955474452554        0        
C4        C        0.46875        0.148148        0.4139955474452554        0        
C1        C        0.4375        0.24074099999999998        0.4139955474452554        0        
C2        C        0.46875        0.296297        0.4139955474452554        0        
C3        C        0.4375        0.314815        0.4139955474452554        0        
C4        C        0.46875        0.259259        0.4139955474452554        0        
C1        C        0.4375        0.351852        0.4139955474452554        0        
C2        C        0.46875        0.407408        0.4139955474452554        0        
C3        C        0.4375        0.425925        0.4139955474452554        0        
C4        C        0.46875        0.37037        0.4139955474452554        0        
C1        C        0.4375        0.46296300000000007        0.4139955474452554        0        
C2        C        0.46875        0.518519        0.4139955474452554        0        
C3        C        0.4375        0.537037        0.4139955474452554        0        
C4        C        0.46875        0.481481        0.4139955474452554        0        
C1        C        0.4375        0.574075        0.4139955474452554        0        
C2        C        0.46875        0.62963        0.4139955474452554        0        
C3        C        0.4375        0.648148        0.4139955474452554        0        
C4        C        0.46875        0.592592        0.4139955474452554        0        
C1        C        0.5        0.018519        0.4139955474452554        0        
C2        C        0.53125        0.074075        0.4139955474452554        0        
C3        C        0.5        0.092592        0.4139955474452554        0        
C4        C        0.53125        0.037037        0.4139955474452554        0        
C1        C        0.5        0.12963        0.4139955474452554        0        
C2        C        0.53125        0.185185        0.4139955474452554        0        
C3        C        0.5        0.203703        0.4139955474452554        0        
C4        C        0.53125        0.148148        0.4139955474452554        0        
C1        C        0.5        0.24074099999999998        0.4139955474452554        0        
C2        C        0.53125        0.296297        0.4139955474452554        0        
C3        C        0.5        0.314815        0.4139955474452554        0        
C4        C        0.53125        0.259259        0.4139955474452554        0        
C1        C        0.5        0.351852        0.4139955474452554        0        
C2        C        0.53125        0.407408        0.4139955474452554        0        
C3        C        0.5        0.425925        0.4139955474452554        0        
C4        C        0.53125        0.37037        0.4139955474452554        0        
C1        C        0.5        0.46296300000000007        0.4139955474452554        0        
C2        C        0.53125        0.518519        0.4139955474452554        0        
C3        C        0.5        0.537037        0.4139955474452554        0        
C4        C        0.53125        0.481481        0.4139955474452554        0        
C1        C        0.5        0.574075        0.4139955474452554        0        
C2        C        0.53125        0.62963        0.4139955474452554        0        
C3        C        0.5        0.648148        0.4139955474452554        0        
C4        C        0.53125        0.592592        0.4139955474452554        0        
C1        C        0.5625        0.018519        0.4139955474452554        0        
C2        C        0.59375        0.074075        0.4139955474452554        0        
C3        C        0.5625        0.092592        0.4139955474452554        0        
C4        C        0.59375        0.037037        0.4139955474452554        0        
C1        C        0.5625        0.12963        0.4139955474452554        0        
C2        C        0.59375        0.185185        0.4139955474452554        0        
C3        C        0.5625        0.203703        0.4139955474452554        0        
C4        C        0.59375        0.148148        0.4139955474452554        0        
C1        C        0.5625        0.24074099999999998        0.4139955474452554        0        
C2        C        0.59375        0.296297        0.4139955474452554        0        
C3        C        0.5625        0.314815        0.4139955474452554        0        
C4        C        0.59375        0.259259        0.4139955474452554        0        
C1        C        0.5625        0.351852        0.4139955474452554        0        
C2        C        0.59375        0.407408        0.4139955474452554        0        
C3        C        0.5625        0.425925        0.4139955474452554        0        
C4        C        0.59375        0.37037        0.4139955474452554        0        
C1        C        0.5625        0.46296300000000007        0.4139955474452554        0        
C2        C        0.59375        0.518519        0.4139955474452554        0        
C3        C        0.5625        0.537037        0.4139955474452554        0        
C4        C        0.59375        0.481481        0.4139955474452554        0        
C1        C        0.5625        0.574075        0.4139955474452554        0        
C2        C        0.59375        0.62963        0.4139955474452554        0        
C3        C        0.5625        0.648148        0.4139955474452554        0        
C4        C        0.59375        0.592592        0.4139955474452554        0        
C1        C        0.625        0.018519        0.4139955474452554        0        
C2        C        0.65625        0.074075        0.4139955474452554        0        
C3        C        0.625        0.092592        0.4139955474452554        0        
C4        C        0.65625        0.037037        0.4139955474452554        0        
C1        C        0.625        0.12963        0.4139955474452554        0        
C2        C        0.65625        0.185185        0.4139955474452554        0        
C3        C        0.625        0.203703        0.4139955474452554        0        
C4        C        0.65625        0.148148        0.4139955474452554        0        
C1        C        0.625        0.24074099999999998        0.4139955474452554        0        
C2        C        0.65625        0.296297        0.4139955474452554        0        
C3        C        0.625        0.314815        0.4139955474452554        0        
C4        C        0.65625        0.259259        0.4139955474452554        0        
C1        C        0.625        0.351852        0.4139955474452554        0        
C2        C        0.65625        0.407408        0.4139955474452554        0        
C3        C        0.625        0.425925        0.4139955474452554        0        
C4        C        0.65625        0.37037        0.4139955474452554        0        
C1        C        0.625        0.46296300000000007        0.4139955474452554        0        
C2        C        0.65625        0.518519        0.4139955474452554        0        
C3        C        0.625        0.537037        0.4139955474452554        0        
C4        C        0.65625        0.481481        0.4139955474452554        0        
C1        C        0.625        0.574075        0.4139955474452554        0        
C2        C        0.65625        0.62963        0.4139955474452554        0        
C3        C        0.625        0.648148        0.4139955474452554        0        
C4        C        0.65625        0.592592        0.4139955474452554        0        
C1        C        0.6875        0.018519        0.4139955474452554        0        
C2        C        0.71875        0.074075        0.4139955474452554        0        
C3        C        0.6875        0.092592        0.4139955474452554        0        
C4        C        0.71875        0.037037        0.4139955474452554        0        
C1        C        0.6875        0.12963        0.4139955474452554        0        
C2        C        0.71875        0.185185        0.4139955474452554        0        
C3        C        0.6875        0.203703        0.4139955474452554        0        
C4        C        0.71875        0.148148        0.4139955474452554        0        
C1        C        0.6875        0.24074099999999998        0.4139955474452554        0        
C2        C        0.71875        0.296297        0.4139955474452554        0        
C3        C        0.6875        0.314815        0.4139955474452554        0        
C4        C        0.71875        0.259259        0.4139955474452554        0        
C1        C        0.6875        0.351852        0.4139955474452554        0        
C2        C        0.71875        0.407408        0.4139955474452554        0        
C3        C        0.6875        0.425925        0.4139955474452554        0        
C4        C        0.71875        0.37037        0.4139955474452554        0        
C1        C        0.6875        0.46296300000000007        0.4139955474452554        0        
C2        C        0.71875        0.518519        0.4139955474452554        0        
C3        C        0.6875        0.537037        0.4139955474452554        0        
C4        C        0.71875        0.481481        0.4139955474452554        0        
C1        C        0.6875        0.574075        0.4139955474452554        0        
C2        C        0.71875        0.62963        0.4139955474452554        0        
C3        C        0.6875        0.648148        0.4139955474452554        0        
C4        C        0.71875        0.592592        0.4139955474452554        0        
C1        C        0.75        0.018519        0.4139955474452554        0        
C2        C        0.78125        0.074075        0.4139955474452554        0        
C3        C        0.75        0.092592        0.4139955474452554        0        
C4        C        0.78125        0.037037        0.4139955474452554        0        
C1        C        0.75        0.12963        0.4139955474452554        0        
C2        C        0.78125        0.185185        0.4139955474452554        0        
C3        C        0.75        0.203703        0.4139955474452554        0        
C4        C        0.78125        0.148148        0.4139955474452554        0        
C1        C        0.75        0.24074099999999998        0.4139955474452554        0        
C2        C        0.78125        0.296297        0.4139955474452554        0        
C3        C        0.75        0.314815        0.4139955474452554        0        
C4        C        0.78125        0.259259        0.4139955474452554        0        
C1        C        0.75        0.351852        0.4139955474452554        0        
C2        C        0.78125        0.407408        0.4139955474452554        0        
C3        C        0.75        0.425925        0.4139955474452554        0        
C4        C        0.78125        0.37037        0.4139955474452554        0        
C1        C        0.75        0.46296300000000007        0.4139955474452554        0        
C2        C        0.78125        0.518519        0.4139955474452554        0        
C3        C        0.75        0.537037        0.4139955474452554        0        
C4        C        0.78125        0.481481        0.4139955474452554        0        
C1        C        0.75        0.574075        0.4139955474452554        0        
C2        C        0.78125        0.62963        0.4139955474452554        0        
C3        C        0.75        0.648148        0.4139955474452554        0        
C4        C        0.78125        0.592592        0.4139955474452554        0        
C1        C        0.8125        0.018519        0.4139955474452554        0        
C2        C        0.84375        0.074075        0.4139955474452554        0        
C3        C        0.8125        0.092592        0.4139955474452554        0        
C4        C        0.84375        0.037037        0.4139955474452554        0        
C1        C        0.8125        0.12963        0.4139955474452554        0        
C2        C        0.84375        0.185185        0.4139955474452554        0        
C3        C        0.8125        0.203703        0.4139955474452554        0        
C4        C        0.84375        0.148148        0.4139955474452554        0        
C1        C        0.8125        0.24074099999999998        0.4139955474452554        0        
C2        C        0.84375        0.296297        0.4139955474452554        0        
C3        C        0.8125        0.314815        0.4139955474452554        0        
C4        C        0.84375        0.259259        0.4139955474452554        0        
C1        C        0.8125        0.351852        0.4139955474452554        0        
C2        C        0.84375        0.407408        0.4139955474452554        0        
C3        C        0.8125        0.425925        0.4139955474452554        0        
C4        C        0.84375        0.37037        0.4139955474452554        0        
C1        C        0.8125        0.46296300000000007        0.4139955474452554        0        
C2        C        0.84375        0.518519        0.4139955474452554        0        
C3        C        0.8125        0.537037        0.4139955474452554        0        
C4        C        0.84375        0.481481        0.4139955474452554        0        
C1        C        0.8125        0.574075        0.4139955474452554        0        
C2        C        0.84375        0.62963        0.4139955474452554        0        
C3        C        0.8125        0.648148        0.4139955474452554        0        
C4        C        0.84375        0.592592        0.4139955474452554        0        
C1        C        0.875        0.018519        0.4139955474452554        0        
C2        C        0.9062500000000001        0.074075        0.4139955474452554        0        
C3        C        0.875        0.092592        0.4139955474452554        0        
C4        C        0.9062500000000001        0.037037        0.4139955474452554        0        
C1        C        0.875        0.12963        0.4139955474452554        0        
C2        C        0.9062500000000001        0.185185        0.4139955474452554        0        
C3        C        0.875        0.203703        0.4139955474452554        0        
C4        C        0.9062500000000001        0.148148        0.4139955474452554        0        
C1        C        0.875        0.24074099999999998        0.4139955474452554        0        
C2        C        0.9062500000000001        0.296297        0.4139955474452554        0        
C3        C        0.875        0.314815        0.4139955474452554        0        
C4        C        0.9062500000000001        0.259259        0.4139955474452554        0        
C1        C        0.875        0.351852        0.4139955474452554        0        
C2        C        0.9062500000000001        0.407408        0.4139955474452554        0        
C3        C        0.875        0.425925        0.4139955474452554        0        
C4        C        0.9062500000000001        0.37037        0.4139955474452554        0        
C1        C        0.875        0.46296300000000007        0.4139955474452554        0        
C2        C        0.9062500000000001        0.518519        0.4139955474452554        0        
C3        C        0.875        0.537037        0.4139955474452554        0        
C4        C        0.9062500000000001        0.481481        0.4139955474452554        0        
C1        C        0.875        0.574075        0.4139955474452554        0        
C2        C        0.9062500000000001        0.62963        0.4139955474452554        0        
C3        C        0.875        0.648148        0.4139955474452554        0        
C4        C        0.9062500000000001        0.592592        0.4139955474452554        0        
C1        C        0.9375        0.018519        0.4139955474452554        0        
C2        C        0.9687500000000001        0.074075        0.4139955474452554        0        
C3        C        0.9375        0.092592        0.4139955474452554        0        
C4        C        0.9687500000000001        0.037037        0.4139955474452554        0        
C1        C        0.9375        0.12963        0.4139955474452554        0        
C2        C        0.9687500000000001        0.185185        0.4139955474452554        0        
C3        C        0.9375        0.203703        0.4139955474452554        0        
C4        C        0.9687500000000001        0.148148        0.4139955474452554        0        
C1        C        0.9375        0.24074099999999998        0.4139955474452554        0        
C2        C        0.9687500000000001        0.296297        0.4139955474452554        0        
C3        C        0.9375        0.314815        0.4139955474452554        0        
C4        C        0.9687500000000001        0.259259        0.4139955474452554        0        
C1        C        0.9375        0.351852        0.4139955474452554        0        
C2        C        0.9687500000000001        0.407408        0.4139955474452554        0        
C3        C        0.9375        0.425925        0.4139955474452554        0        
C4        C        0.9687500000000001        0.37037        0.4139955474452554        0        
C1        C        0.9375        0.46296300000000007        0.4139955474452554        0        
C2        C        0.9687500000000001        0.518519        0.4139955474452554        0        
C3        C        0.9375        0.537037        0.4139955474452554        0        
C4        C        0.9687500000000001        0.481481        0.4139955474452554        0        
C1        C        0.9375        0.574075        0.4139955474452554        0        
C2        C        0.9687500000000001        0.62963        0.4139955474452554        0        
C3        C        0.9375        0.648148        0.4139955474452554        0        
C4        C        0.9687500000000001        0.592592        0.4139955474452554        0        
C1        C        0.0        0.685186        0.4139955474452554        0        
C1        C        0.0625        0.685186        0.4139955474452554        0        
C1        C        0.125        0.685186        0.4139955474452554        0        
C1        C        0.1875        0.685186        0.4139955474452554        0        
C1        C        0.25        0.685186        0.4139955474452554        0        
C1        C        0.3125        0.685186        0.4139955474452554        0        
C1        C        0.375        0.685186        0.4139955474452554        0        
C1        C        0.4375        0.685186        0.4139955474452554        0        
C1        C        0.5        0.685186        0.4139955474452554        0        
C1        C        0.5625        0.685186        0.4139955474452554        0        
C1        C        0.625        0.685186        0.4139955474452554        0        
C1        C        0.6875        0.685186        0.4139955474452554        0        
C1        C        0.75        0.685186        0.4139955474452554        0        
C1        C        0.8125        0.685186        0.4139955474452554        0        
C1        C        0.875        0.685186        0.4139955474452554        0        
C1        C        0.9375        0.685186        0.4139955474452554        0        
C2        C        0.03125        0.740741        0.4139955474452554        0        
C2        C        0.09375        0.740741        0.4139955474452554        0        
C2        C        0.15625        0.740741        0.4139955474452554        0        
C2        C        0.21875        0.740741        0.4139955474452554        0        
C2        C        0.28125        0.740741        0.4139955474452554        0        
C2        C        0.34375        0.740741        0.4139955474452554        0        
C2        C        0.40625        0.740741        0.4139955474452554        0        
C2        C        0.46875        0.740741        0.4139955474452554        0        
C2        C        0.53125        0.740741        0.4139955474452554        0        
C2        C        0.59375        0.740741        0.4139955474452554        0        
C2        C        0.65625        0.740741        0.4139955474452554        0        
C2        C        0.71875        0.740741        0.4139955474452554        0        
C2        C        0.78125        0.740741        0.4139955474452554        0        
C2        C        0.84375        0.740741        0.4139955474452554        0        
C2        C        0.9062500000000001        0.740741        0.4139955474452554        0        
C2        C        0.9687500000000001        0.740741        0.4139955474452554        0        
C3        C        0.0        0.759259        0.4139955474452554        0        
C3        C        0.0625        0.759259        0.4139955474452554        0        
C3        C        0.125        0.759259        0.4139955474452554        0        
C3        C        0.1875        0.759259        0.4139955474452554        0        
C3        C        0.25        0.759259        0.4139955474452554        0        
C3        C        0.3125        0.759259        0.4139955474452554        0        
C3        C        0.375        0.759259        0.4139955474452554        0        
C3        C        0.4375        0.759259        0.4139955474452554        0        
C3        C        0.5        0.759259        0.4139955474452554        0        
C3        C        0.5625        0.759259        0.4139955474452554        0        
C3        C        0.625        0.759259        0.4139955474452554        0        
C3        C        0.6875        0.759259        0.4139955474452554        0        
C3        C        0.75        0.759259        0.4139955474452554        0        
C3        C        0.8125        0.759259        0.4139955474452554        0        
C3        C        0.875        0.759259        0.4139955474452554        0        
C3        C        0.9375        0.759259        0.4139955474452554        0        
C4        C        0.03125        0.703703        0.4139955474452554        0        
C4        C        0.09375        0.703703        0.4139955474452554        0        
C4        C        0.15625        0.703703        0.4139955474452554        0        
C4        C        0.21875        0.703703        0.4139955474452554        0        
C4        C        0.28125        0.703703        0.4139955474452554        0        
C4        C        0.34375        0.703703        0.4139955474452554        0        
C4        C        0.40625        0.703703        0.4139955474452554        0        
C4        C        0.46875        0.703703        0.4139955474452554        0        
C4        C        0.53125        0.703703        0.4139955474452554        0        
C4        C        0.59375        0.703703        0.4139955474452554        0        
C4        C        0.65625        0.703703        0.4139955474452554        0        
C4        C        0.71875        0.703703        0.4139955474452554        0        
C4        C        0.78125        0.703703        0.4139955474452554        0        
C4        C        0.84375        0.703703        0.4139955474452554        0        
C4        C        0.9062500000000001        0.703703        0.4139955474452554        0        
C4        C        0.9687500000000001        0.703703        0.4139955474452554        0        
C1        C        0.0        0.796297        0.4139955474452554        0        
C1        C        0.0625        0.796297        0.4139955474452554        0        
C1        C        0.125        0.796297        0.4139955474452554        0        
C1        C        0.1875        0.796297        0.4139955474452554        0        
C1        C        0.25        0.796297        0.4139955474452554        0        
C1        C        0.3125        0.796297        0.4139955474452554        0        
C1        C        0.375        0.796297        0.4139955474452554        0        
C1        C        0.4375        0.796297        0.4139955474452554        0        
C1        C        0.5        0.796297        0.4139955474452554        0        
C1        C        0.5625        0.796297        0.4139955474452554        0        
C1        C        0.625        0.796297        0.4139955474452554        0        
C1        C        0.6875        0.796297        0.4139955474452554        0        
C1        C        0.75        0.796297        0.4139955474452554        0        
C1        C        0.8125        0.796297        0.4139955474452554        0        
C1        C        0.875        0.796297        0.4139955474452554        0        
C1        C        0.9375        0.796297        0.4139955474452554        0        
C2        C        0.03125        0.851852        0.4139955474452554        0        
C2        C        0.09375        0.851852        0.4139955474452554        0        
C2        C        0.15625        0.851852        0.4139955474452554        0        
C2        C        0.21875        0.851852        0.4139955474452554        0        
C2        C        0.28125        0.851852        0.4139955474452554        0        
C2        C        0.34375        0.851852        0.4139955474452554        0        
C2        C        0.40625        0.851852        0.4139955474452554        0        
C2        C        0.46875        0.851852        0.4139955474452554        0        
C2        C        0.53125        0.851852        0.4139955474452554        0        
C2        C        0.59375        0.851852        0.4139955474452554        0        
C2        C        0.65625        0.851852        0.4139955474452554        0        
C2        C        0.71875        0.851852        0.4139955474452554        0        
C2        C        0.78125        0.851852        0.4139955474452554        0        
C2        C        0.84375        0.851852        0.4139955474452554        0        
C2        C        0.9062500000000001        0.851852        0.4139955474452554        0        
C2        C        0.9687500000000001        0.851852        0.4139955474452554        0        
C3        C        0.0        0.87037        0.4139955474452554        0        
C3        C        0.0625        0.87037        0.4139955474452554        0        
C3        C        0.125        0.87037        0.4139955474452554        0        
C3        C        0.1875        0.87037        0.4139955474452554        0        
C3        C        0.25        0.87037        0.4139955474452554        0        
C3        C        0.3125        0.87037        0.4139955474452554        0        
C3        C        0.375        0.87037        0.4139955474452554        0        
C3        C        0.4375        0.87037        0.4139955474452554        0        
C3        C        0.5        0.87037        0.4139955474452554        0        
C3        C        0.5625        0.87037        0.4139955474452554        0        
C3        C        0.625        0.87037        0.4139955474452554        0        
C3        C        0.6875        0.87037        0.4139955474452554        0        
C3        C        0.75        0.87037        0.4139955474452554        0        
C3        C        0.8125        0.87037        0.4139955474452554        0        
C3        C        0.875        0.87037        0.4139955474452554        0        
C3        C        0.9375        0.87037        0.4139955474452554        0        
C4        C        0.03125        0.814814        0.4139955474452554        0        
C4        C        0.09375        0.814814        0.4139955474452554        0        
C4        C        0.15625        0.814814        0.4139955474452554        0        
C4        C        0.21875        0.814814        0.4139955474452554        0        
C4        C        0.28125        0.814814        0.4139955474452554        0        
C4        C        0.34375        0.814814        0.4139955474452554        0        
C4        C        0.40625        0.814814        0.4139955474452554        0        
C4        C        0.46875        0.814814        0.4139955474452554        0        
C4        C        0.53125        0.814814        0.4139955474452554        0        
C4        C        0.59375        0.814814        0.4139955474452554        0        
C4        C        0.65625        0.814814        0.4139955474452554        0        
C4        C        0.71875        0.814814        0.4139955474452554        0        
C4        C        0.78125        0.814814        0.4139955474452554        0        
C4        C        0.84375        0.814814        0.4139955474452554        0        
C4        C        0.9062500000000001        0.814814        0.4139955474452554        0        
C4        C        0.9687500000000001        0.814814        0.4139955474452554        0        
C1        C        0.0        0.907408        0.4139955474452554        0        
C1        C        0.0625        0.907408        0.4139955474452554        0        
C1        C        0.125        0.907408        0.4139955474452554        0        
C1        C        0.1875        0.907408        0.4139955474452554        0        
C1        C        0.25        0.907408        0.4139955474452554        0        
C1        C        0.3125        0.907408        0.4139955474452554        0        
C1        C        0.375        0.907408        0.4139955474452554        0        
C1        C        0.4375        0.907408        0.4139955474452554        0        
C1        C        0.5        0.907408        0.4139955474452554        0        
C1        C        0.5625        0.907408        0.4139955474452554        0        
C1        C        0.625        0.907408        0.4139955474452554        0        
C1        C        0.6875        0.907408        0.4139955474452554        0        
C1        C        0.75        0.907408        0.4139955474452554        0        
C1        C        0.8125        0.907408        0.4139955474452554        0        
C1        C        0.875        0.907408        0.4139955474452554        0        
C1        C        0.9375        0.907408        0.4139955474452554        0        
C2        C        0.03125        0.962963        0.4139955474452554        0        
C2        C        0.09375        0.962963        0.4139955474452554        0        
C2        C        0.15625        0.962963        0.4139955474452554        0        
C2        C        0.21875        0.962963        0.4139955474452554        0        
C2        C        0.28125        0.962963        0.4139955474452554        0        
C2        C        0.34375        0.962963        0.4139955474452554        0        
C2        C        0.40625        0.962963        0.4139955474452554        0        
C2        C        0.46875        0.962963        0.4139955474452554        0        
C2        C        0.53125        0.962963        0.4139955474452554        0        
C2        C        0.59375        0.962963        0.4139955474452554        0        
C2        C        0.65625        0.962963        0.4139955474452554        0        
C2        C        0.71875        0.962963        0.4139955474452554        0        
C2        C        0.78125        0.962963        0.4139955474452554        0        
C2        C        0.84375        0.962963        0.4139955474452554        0        
C2        C        0.9062500000000001        0.962963        0.4139955474452554        0        
C2        C        0.9687500000000001        0.962963        0.4139955474452554        0        
C3        C        0.0        0.9814809999999999        0.4139955474452554        0        
C3        C        0.0625        0.9814809999999999        0.4139955474452554        0        
C3        C        0.125        0.9814809999999999        0.4139955474452554        0        
C3        C        0.1875        0.9814809999999999        0.4139955474452554        0        
C3        C        0.25        0.9814809999999999        0.4139955474452554        0        
C3        C        0.3125        0.9814809999999999        0.4139955474452554        0        
C3        C        0.375        0.9814809999999999        0.4139955474452554        0        
C3        C        0.4375        0.9814809999999999        0.4139955474452554        0        
C3        C        0.5        0.9814809999999999        0.4139955474452554        0        
C3        C        0.5625        0.9814809999999999        0.4139955474452554        0        
C3        C        0.625        0.9814809999999999        0.4139955474452554        0        
C3        C        0.6875        0.9814809999999999        0.4139955474452554        0        
C3        C        0.75        0.9814809999999999        0.4139955474452554        0        
C3        C        0.8125        0.9814809999999999        0.4139955474452554        0        
C3        C        0.875        0.9814809999999999        0.4139955474452554        0        
C3        C        0.9375        0.9814809999999999        0.4139955474452554        0        
C4        C        0.03125        0.925925        0.4139955474452554        0        
C4        C        0.09375        0.925925        0.4139955474452554        0        
C4        C        0.15625        0.925925        0.4139955474452554        0        
C4        C        0.21875        0.925925        0.4139955474452554        0        
C4        C        0.28125        0.925925        0.4139955474452554        0        
C4        C        0.34375        0.925925        0.4139955474452554        0        
C4        C        0.40625        0.925925        0.4139955474452554        0        
C4        C        0.46875        0.925925        0.4139955474452554        0        
C4        C        0.53125        0.925925        0.4139955474452554        0        
C4        C        0.59375        0.925925        0.4139955474452554        0        
C4        C        0.65625        0.925925        0.4139955474452554        0        
C4        C        0.71875        0.925925        0.4139955474452554        0        
C4        C        0.78125        0.925925        0.4139955474452554        0        
C4        C        0.84375        0.925925        0.4139955474452554        0        
C4        C        0.9062500000000001        0.925925        0.4139955474452554        0        
C4        C        0.9687500000000001        0.925925        0.4139955474452554        0        
C1        C        0.0        0.018519        0.658521094890511        0        
C2        C        0.03125        0.074075        0.658521094890511        0        
C3        C        0.0        0.092592        0.658521094890511        0        
C4        C        0.03125        0.037037        0.658521094890511        0        
C1        C        0.0        0.12963        0.658521094890511        0        
C2        C        0.03125        0.185185        0.658521094890511        0        
C3        C        0.0        0.203703        0.658521094890511        0        
C4        C        0.03125        0.148148        0.658521094890511        0        
C1        C        0.0        0.24074099999999998        0.658521094890511        0        
C2        C        0.03125        0.296297        0.658521094890511        0        
C3        C        0.0        0.314815        0.658521094890511        0        
C4        C        0.03125        0.259259        0.658521094890511        0        
C1        C        0.0        0.351852        0.658521094890511        0        
C2        C        0.03125        0.407408        0.658521094890511        0        
C3        C        0.0        0.425925        0.658521094890511        0        
C4        C        0.03125        0.37037        0.658521094890511        0        
C1        C        0.0        0.46296300000000007        0.658521094890511        0        
C2        C        0.03125        0.518519        0.658521094890511        0        
C3        C        0.0        0.537037        0.658521094890511        0        
C4        C        0.03125        0.481481        0.658521094890511        0        
C1        C        0.0        0.574075        0.658521094890511        0        
C2        C        0.03125        0.62963        0.658521094890511        0        
C3        C        0.0        0.648148        0.658521094890511        0        
C4        C        0.03125        0.592592        0.658521094890511        0        
C1        C        0.0625        0.018519        0.658521094890511        0        
C2        C        0.09375        0.074075        0.658521094890511        0        
C3        C        0.0625        0.092592        0.658521094890511        0        
C4        C        0.09375        0.037037        0.658521094890511        0        
C1        C        0.0625        0.12963        0.658521094890511        0        
C2        C        0.09375        0.185185        0.658521094890511        0        
C3        C        0.0625        0.203703        0.658521094890511        0        
C4        C        0.09375        0.148148        0.658521094890511        0        
C1        C        0.0625        0.24074099999999998        0.658521094890511        0        
C2        C        0.09375        0.296297        0.658521094890511        0        
C3        C        0.0625        0.314815        0.658521094890511        0        
C4        C        0.09375        0.259259        0.658521094890511        0        
C1        C        0.0625        0.351852        0.658521094890511        0        
C2        C        0.09375        0.407408        0.658521094890511        0        
C3        C        0.0625        0.425925        0.658521094890511        0        
C4        C        0.09375        0.37037        0.658521094890511        0        
C1        C        0.0625        0.46296300000000007        0.658521094890511        0        
C2        C        0.09375        0.518519        0.658521094890511        0        
C3        C        0.0625        0.537037        0.658521094890511        0        
C4        C        0.09375        0.481481        0.658521094890511        0        
C1        C        0.0625        0.574075        0.658521094890511        0        
C2        C        0.09375        0.62963        0.658521094890511        0        
C3        C        0.0625        0.648148        0.658521094890511        0        
C4        C        0.09375        0.592592        0.658521094890511        0        
C1        C        0.125        0.018519        0.658521094890511        0        
C2        C        0.15625        0.074075        0.658521094890511        0        
C3        C        0.125        0.092592        0.658521094890511        0        
C4        C        0.15625        0.037037        0.658521094890511        0        
C1        C        0.125        0.12963        0.658521094890511        0        
C2        C        0.15625        0.185185        0.658521094890511        0        
C3        C        0.125        0.203703        0.658521094890511        0        
C4        C        0.15625        0.148148        0.658521094890511        0        
C1        C        0.125        0.24074099999999998        0.658521094890511        0        
C2        C        0.15625        0.296297        0.658521094890511        0        
C3        C        0.125        0.314815        0.658521094890511        0        
C4        C        0.15625        0.259259        0.658521094890511        0        
C1        C        0.125        0.351852        0.658521094890511        0        
C2        C        0.15625        0.407408        0.658521094890511        0        
C3        C        0.125        0.425925        0.658521094890511        0        
C4        C        0.15625        0.37037        0.658521094890511        0        
C1        C        0.125        0.46296300000000007        0.658521094890511        0        
C2        C        0.15625        0.518519        0.658521094890511        0        
C3        C        0.125        0.537037        0.658521094890511        0        
C4        C        0.15625        0.481481        0.658521094890511        0        
C1        C        0.125        0.574075        0.658521094890511        0        
C2        C        0.15625        0.62963        0.658521094890511        0        
C3        C        0.125        0.648148        0.658521094890511        0        
C4        C        0.15625        0.592592        0.658521094890511        0        
C1        C        0.1875        0.018519        0.658521094890511        0        
C2        C        0.21875        0.074075        0.658521094890511        0        
C3        C        0.1875        0.092592        0.658521094890511        0        
C4        C        0.21875        0.037037        0.658521094890511        0        
C1        C        0.1875        0.12963        0.658521094890511        0        
C2        C        0.21875        0.185185        0.658521094890511        0        
C3        C        0.1875        0.203703        0.658521094890511        0        
C4        C        0.21875        0.148148        0.658521094890511        0        
C1        C        0.1875        0.24074099999999998        0.658521094890511        0        
C2        C        0.21875        0.296297        0.658521094890511        0        
C3        C        0.1875        0.314815        0.658521094890511        0        
C4        C        0.21875        0.259259        0.658521094890511        0        
C1        C        0.1875        0.351852        0.658521094890511        0        
C2        C        0.21875        0.407408        0.658521094890511        0        
C3        C        0.1875        0.425925        0.658521094890511        0        
C4        C        0.21875        0.37037        0.658521094890511        0        
C1        C        0.1875        0.46296300000000007        0.658521094890511        0        
C2        C        0.21875        0.518519        0.658521094890511        0        
C3        C        0.1875        0.537037        0.658521094890511        0        
C4        C        0.21875        0.481481        0.658521094890511        0        
C1        C        0.1875        0.574075        0.658521094890511        0        
C2        C        0.21875        0.62963        0.658521094890511        0        
C3        C        0.1875        0.648148        0.658521094890511        0        
C4        C        0.21875        0.592592        0.658521094890511        0        
C1        C        0.25        0.018519        0.658521094890511        0        
C2        C        0.28125        0.074075        0.658521094890511        0        
C3        C        0.25        0.092592        0.658521094890511        0        
C4        C        0.28125        0.037037        0.658521094890511        0        
C1        C        0.25        0.12963        0.658521094890511        0        
C2        C        0.28125        0.185185        0.658521094890511        0        
C3        C        0.25        0.203703        0.658521094890511        0        
C4        C        0.28125        0.148148        0.658521094890511        0        
C1        C        0.25        0.24074099999999998        0.658521094890511        0        
C2        C        0.28125        0.296297        0.658521094890511        0        
C3        C        0.25        0.314815        0.658521094890511        0        
C4        C        0.28125        0.259259        0.658521094890511        0        
C1        C        0.25        0.351852        0.658521094890511        0        
C2        C        0.28125        0.407408        0.658521094890511        0        
C3        C        0.25        0.425925        0.658521094890511        0        
C4        C        0.28125        0.37037        0.658521094890511        0        
C1        C        0.25        0.46296300000000007        0.658521094890511        0        
C2        C        0.28125        0.518519        0.658521094890511        0        
C3        C        0.25        0.537037        0.658521094890511        0        
C4        C        0.28125        0.481481        0.658521094890511        0        
C1        C        0.25        0.574075        0.658521094890511        0        
C2        C        0.28125        0.62963        0.658521094890511        0        
C3        C        0.25        0.648148        0.658521094890511        0        
C4        C        0.28125        0.592592        0.658521094890511        0        
C1        C        0.3125        0.018519        0.658521094890511        0        
C2        C        0.34375        0.074075        0.658521094890511        0        
C3        C        0.3125        0.092592        0.658521094890511        0        
C4        C        0.34375        0.037037        0.658521094890511        0        
C1        C        0.3125        0.12963        0.658521094890511        0        
C2        C        0.34375        0.185185        0.658521094890511        0        
C3        C        0.3125        0.203703        0.658521094890511        0        
C4        C        0.34375        0.148148        0.658521094890511        0        
C1        C        0.3125        0.24074099999999998        0.658521094890511        0        
C2        C        0.34375        0.296297        0.658521094890511        0        
C3        C        0.3125        0.314815        0.658521094890511        0        
C4        C        0.34375        0.259259        0.658521094890511        0        
C1        C        0.3125        0.351852        0.658521094890511        0        
C2        C        0.34375        0.407408        0.658521094890511        0        
C3        C        0.3125        0.425925        0.658521094890511        0        
C4        C        0.34375        0.37037        0.658521094890511        0        
C1        C        0.3125        0.46296300000000007        0.658521094890511        0        
C2        C        0.34375        0.518519        0.658521094890511        0        
C3        C        0.3125        0.537037        0.658521094890511        0        
C4        C        0.34375        0.481481        0.658521094890511        0        
C1        C        0.3125        0.574075        0.658521094890511        0        
C2        C        0.34375        0.62963        0.658521094890511        0        
C3        C        0.3125        0.648148        0.658521094890511        0        
C4        C        0.34375        0.592592        0.658521094890511        0        
C1        C        0.375        0.018519        0.658521094890511        0        
C2        C        0.40625        0.074075        0.658521094890511        0        
C3        C        0.375        0.092592        0.658521094890511        0        
C4        C        0.40625        0.037037        0.658521094890511        0        
C1        C        0.375        0.12963        0.658521094890511        0        
C2        C        0.40625        0.185185        0.658521094890511        0        
C3        C        0.375        0.203703        0.658521094890511        0        
C4        C        0.40625        0.148148        0.658521094890511        0        
C1        C        0.375        0.24074099999999998        0.658521094890511        0        
C2        C        0.40625        0.296297        0.658521094890511        0        
C3        C        0.375        0.314815        0.658521094890511        0        
C4        C        0.40625        0.259259        0.658521094890511        0        
C1        C        0.375        0.351852        0.658521094890511        0        
C2        C        0.40625        0.407408        0.658521094890511        0        
C3        C        0.375        0.425925        0.658521094890511        0        
C4        C        0.40625        0.37037        0.658521094890511        0        
C1        C        0.375        0.46296300000000007        0.658521094890511        0        
C2        C        0.40625        0.518519        0.658521094890511        0        
C3        C        0.375        0.537037        0.658521094890511        0        
C4        C        0.40625        0.481481        0.658521094890511        0        
C1        C        0.375        0.574075        0.658521094890511        0        
C2        C        0.40625        0.62963        0.658521094890511        0        
C3        C        0.375        0.648148        0.658521094890511        0        
C4        C        0.40625        0.592592        0.658521094890511        0        
C1        C        0.4375        0.018519        0.658521094890511        0        
C2        C        0.46875        0.074075        0.658521094890511        0        
C3        C        0.4375        0.092592        0.658521094890511        0        
C4        C        0.46875        0.037037        0.658521094890511        0        
C1        C        0.4375        0.12963        0.658521094890511        0        
C2        C        0.46875        0.185185        0.658521094890511        0        
C3        C        0.4375        0.203703        0.658521094890511        0        
C4        C        0.46875        0.148148        0.658521094890511        0        
C1        C        0.4375        0.24074099999999998        0.658521094890511        0        
C2        C        0.46875        0.296297        0.658521094890511        0        
C3        C        0.4375        0.314815        0.658521094890511        0        
C4        C        0.46875        0.259259        0.658521094890511        0        
C1        C        0.4375        0.351852        0.658521094890511        0        
C2        C        0.46875        0.407408        0.658521094890511        0        
C3        C        0.4375        0.425925        0.658521094890511        0        
C4        C        0.46875        0.37037        0.658521094890511        0        
C1        C        0.4375        0.46296300000000007        0.658521094890511        0        
C2        C        0.46875        0.518519        0.658521094890511        0        
C3        C        0.4375        0.537037        0.658521094890511        0        
C4        C        0.46875        0.481481        0.658521094890511        0        
C1        C        0.4375        0.574075        0.658521094890511        0        
C2        C        0.46875        0.62963        0.658521094890511        0        
C3        C        0.4375        0.648148        0.658521094890511        0        
C4        C        0.46875        0.592592        0.658521094890511        0        
C1        C        0.5        0.018519        0.658521094890511        0        
C2        C        0.53125        0.074075        0.658521094890511        0        
C3        C        0.5        0.092592        0.658521094890511        0        
C4        C        0.53125        0.037037        0.658521094890511        0        
C1        C        0.5        0.12963        0.658521094890511        0        
C2        C        0.53125        0.185185        0.658521094890511        0        
C3        C        0.5        0.203703        0.658521094890511        0        
C4        C        0.53125        0.148148        0.658521094890511        0        
C1        C        0.5        0.24074099999999998        0.658521094890511        0        
C2        C        0.53125        0.296297        0.658521094890511        0        
C3        C        0.5        0.314815        0.658521094890511        0        
C4        C        0.53125        0.259259        0.658521094890511        0        
C1        C        0.5        0.351852        0.658521094890511        0        
C2        C        0.53125        0.407408        0.658521094890511        0        
C3        C        0.5        0.425925        0.658521094890511        0        
C4        C        0.53125        0.37037        0.658521094890511        0        
C1        C        0.5        0.46296300000000007        0.658521094890511        0        
C2        C        0.53125        0.518519        0.658521094890511        0        
C3        C        0.5        0.537037        0.658521094890511        0        
C4        C        0.53125        0.481481        0.658521094890511        0        
C1        C        0.5        0.574075        0.658521094890511        0        
C2        C        0.53125        0.62963        0.658521094890511        0        
C3        C        0.5        0.648148        0.658521094890511        0        
C4        C        0.53125        0.592592        0.658521094890511        0        
C1        C        0.5625        0.018519        0.658521094890511        0        
C2        C        0.59375        0.074075        0.658521094890511        0        
C3        C        0.5625        0.092592        0.658521094890511        0        
C4        C        0.59375        0.037037        0.658521094890511        0        
C1        C        0.5625        0.12963        0.658521094890511        0        
C2        C        0.59375        0.185185        0.658521094890511        0        
C3        C        0.5625        0.203703        0.658521094890511        0        
C4        C        0.59375        0.148148        0.658521094890511        0        
C1        C        0.5625        0.24074099999999998        0.658521094890511        0        
C2        C        0.59375        0.296297        0.658521094890511        0        
C3        C        0.5625        0.314815        0.658521094890511        0        
C4        C        0.59375        0.259259        0.658521094890511        0        
C1        C        0.5625        0.351852        0.658521094890511        0        
C2        C        0.59375        0.407408        0.658521094890511        0        
C3        C        0.5625        0.425925        0.658521094890511        0        
C4        C        0.59375        0.37037        0.658521094890511        0        
C1        C        0.5625        0.46296300000000007        0.658521094890511        0        
C2        C        0.59375        0.518519        0.658521094890511        0        
C3        C        0.5625        0.537037        0.658521094890511        0        
C4        C        0.59375        0.481481        0.658521094890511        0        
C1        C        0.5625        0.574075        0.658521094890511        0        
C2        C        0.59375        0.62963        0.658521094890511        0        
C3        C        0.5625        0.648148        0.658521094890511        0        
C4        C        0.59375        0.592592        0.658521094890511        0        
C1        C        0.625        0.018519        0.658521094890511        0        
C2        C        0.65625        0.074075        0.658521094890511        0        
C3        C        0.625        0.092592        0.658521094890511        0        
C4        C        0.65625        0.037037        0.658521094890511        0        
C1        C        0.625        0.12963        0.658521094890511        0        
C2        C        0.65625        0.185185        0.658521094890511        0        
C3        C        0.625        0.203703        0.658521094890511        0        
C4        C        0.65625        0.148148        0.658521094890511        0        
C1        C        0.625        0.24074099999999998        0.658521094890511        0        
C2        C        0.65625        0.296297        0.658521094890511        0        
C3        C        0.625        0.314815        0.658521094890511        0        
C4        C        0.65625        0.259259        0.658521094890511        0        
C1        C        0.625        0.351852        0.658521094890511        0        
C2        C        0.65625        0.407408        0.658521094890511        0        
C3        C        0.625        0.425925        0.658521094890511        0        
C4        C        0.65625        0.37037        0.658521094890511        0        
C1        C        0.625        0.46296300000000007        0.658521094890511        0        
C2        C        0.65625        0.518519        0.658521094890511        0        
C3        C        0.625        0.537037        0.658521094890511        0        
C4        C        0.65625        0.481481        0.658521094890511        0        
C1        C        0.625        0.574075        0.658521094890511        0        
C2        C        0.65625        0.62963        0.658521094890511        0        
C3        C        0.625        0.648148        0.658521094890511        0        
C4        C        0.65625        0.592592        0.658521094890511        0        
C1        C        0.6875        0.018519        0.658521094890511        0        
C2        C        0.71875        0.074075        0.658521094890511        0        
C3        C        0.6875        0.092592        0.658521094890511        0        
C4        C        0.71875        0.037037        0.658521094890511        0        
C1        C        0.6875        0.12963        0.658521094890511        0        
C2        C        0.71875        0.185185        0.658521094890511        0        
C3        C        0.6875        0.203703        0.658521094890511        0        
C4        C        0.71875        0.148148        0.658521094890511        0        
C1        C        0.6875        0.24074099999999998        0.658521094890511        0        
C2        C        0.71875        0.296297        0.658521094890511        0        
C3        C        0.6875        0.314815        0.658521094890511        0        
C4        C        0.71875        0.259259        0.658521094890511        0        
C1        C        0.6875        0.351852        0.658521094890511        0        
C2        C        0.71875        0.407408        0.658521094890511        0        
C3        C        0.6875        0.425925        0.658521094890511        0        
C4        C        0.71875        0.37037        0.658521094890511        0        
C1        C        0.6875        0.46296300000000007        0.658521094890511        0        
C2        C        0.71875        0.518519        0.658521094890511        0        
C3        C        0.6875        0.537037        0.658521094890511        0        
C4        C        0.71875        0.481481        0.658521094890511        0        
C1        C        0.6875        0.574075        0.658521094890511        0        
C2        C        0.71875        0.62963        0.658521094890511        0        
C3        C        0.6875        0.648148        0.658521094890511        0        
C4        C        0.71875        0.592592        0.658521094890511        0        
C1        C        0.75        0.018519        0.658521094890511        0        
C2        C        0.78125        0.074075        0.658521094890511        0        
C3        C        0.75        0.092592        0.658521094890511        0        
C4        C        0.78125        0.037037        0.658521094890511        0        
C1        C        0.75        0.12963        0.658521094890511        0        
C2        C        0.78125        0.185185        0.658521094890511        0        
C3        C        0.75        0.203703        0.658521094890511        0        
C4        C        0.78125        0.148148        0.658521094890511        0        
C1        C        0.75        0.24074099999999998        0.658521094890511        0        
C2        C        0.78125        0.296297        0.658521094890511        0        
C3        C        0.75        0.314815        0.658521094890511        0        
C4        C        0.78125        0.259259        0.658521094890511        0        
C1        C        0.75        0.351852        0.658521094890511        0        
C2        C        0.78125        0.407408        0.658521094890511        0        
C3        C        0.75        0.425925        0.658521094890511        0        
C4        C        0.78125        0.37037        0.658521094890511        0        
C1        C        0.75        0.46296300000000007        0.658521094890511        0        
C2        C        0.78125        0.518519        0.658521094890511        0        
C3        C        0.75        0.537037        0.658521094890511        0        
C4        C        0.78125        0.481481        0.658521094890511        0        
C1        C        0.75        0.574075        0.658521094890511        0        
C2        C        0.78125        0.62963        0.658521094890511        0        
C3        C        0.75        0.648148        0.658521094890511        0        
C4        C        0.78125        0.592592        0.658521094890511        0        
C1        C        0.8125        0.018519        0.658521094890511        0        
C2        C        0.84375        0.074075        0.658521094890511        0        
C3        C        0.8125        0.092592        0.658521094890511        0        
C4        C        0.84375        0.037037        0.658521094890511        0        
C1        C        0.8125        0.12963        0.658521094890511        0        
C2        C        0.84375        0.185185        0.658521094890511        0        
C3        C        0.8125        0.203703        0.658521094890511        0        
C4        C        0.84375        0.148148        0.658521094890511        0        
C1        C        0.8125        0.24074099999999998        0.658521094890511        0        
C2        C        0.84375        0.296297        0.658521094890511        0        
C3        C        0.8125        0.314815        0.658521094890511        0        
C4        C        0.84375        0.259259        0.658521094890511        0        
C1        C        0.8125        0.351852        0.658521094890511        0        
C2        C        0.84375        0.407408        0.658521094890511        0        
C3        C        0.8125        0.425925        0.658521094890511        0        
C4        C        0.84375        0.37037        0.658521094890511        0        
C1        C        0.8125        0.46296300000000007        0.658521094890511        0        
C2        C        0.84375        0.518519        0.658521094890511        0        
C3        C        0.8125        0.537037        0.658521094890511        0        
C4        C        0.84375        0.481481        0.658521094890511        0        
C1        C        0.8125        0.574075        0.658521094890511        0        
C2        C        0.84375        0.62963        0.658521094890511        0        
C3        C        0.8125        0.648148        0.658521094890511        0        
C4        C        0.84375        0.592592        0.658521094890511        0        
C1        C        0.875        0.018519        0.658521094890511        0        
C2        C        0.9062500000000001        0.074075        0.658521094890511        0        
C3        C        0.875        0.092592        0.658521094890511        0        
C4        C        0.9062500000000001        0.037037        0.658521094890511        0        
C1        C        0.875        0.12963        0.658521094890511        0        
C2        C        0.9062500000000001        0.185185        0.658521094890511        0        
C3        C        0.875        0.203703        0.658521094890511        0        
C4        C        0.9062500000000001        0.148148        0.658521094890511        0        
C1        C        0.875        0.24074099999999998        0.658521094890511        0        
C2        C        0.9062500000000001        0.296297        0.658521094890511        0        
C3        C        0.875        0.314815        0.658521094890511        0        
C4        C        0.9062500000000001        0.259259        0.658521094890511        0        
C1        C        0.875        0.351852        0.658521094890511        0        
C2        C        0.9062500000000001        0.407408        0.658521094890511        0        
C3        C        0.875        0.425925        0.658521094890511        0        
C4        C        0.9062500000000001        0.37037        0.658521094890511        0        
C1        C        0.875        0.46296300000000007        0.658521094890511        0        
C2        C        0.9062500000000001        0.518519        0.658521094890511        0        
C3        C        0.875        0.537037        0.658521094890511        0        
C4        C        0.9062500000000001        0.481481        0.658521094890511        0        
C1        C        0.875        0.574075        0.658521094890511        0        
C2        C        0.9062500000000001        0.62963        0.658521094890511        0        
C3        C        0.875        0.648148        0.658521094890511        0        
C4        C        0.9062500000000001        0.592592        0.658521094890511        0        
C1        C        0.9375        0.018519        0.658521094890511        0        
C2        C        0.9687500000000001        0.074075        0.658521094890511        0        
C3        C        0.9375        0.092592        0.658521094890511        0        
C4        C        0.9687500000000001        0.037037        0.658521094890511        0        
C1        C        0.9375        0.12963        0.658521094890511        0        
C2        C        0.9687500000000001        0.185185        0.658521094890511        0        
C3        C        0.9375        0.203703        0.658521094890511        0        
C4        C        0.9687500000000001        0.148148        0.658521094890511        0        
C1        C        0.9375        0.24074099999999998        0.658521094890511        0        
C2        C        0.9687500000000001        0.296297        0.658521094890511        0        
C3        C        0.9375        0.314815        0.658521094890511        0        
C4        C        0.9687500000000001        0.259259        0.658521094890511        0        
C1        C        0.9375        0.351852        0.658521094890511        0        
C2        C        0.9687500000000001        0.407408        0.658521094890511        0        
C3        C        0.9375        0.425925        0.658521094890511        0        
C4        C        0.9687500000000001        0.37037        0.658521094890511        0        
C1        C        0.9375        0.46296300000000007        0.658521094890511        0        
C2        C        0.9687500000000001        0.518519        0.658521094890511        0        
C3        C        0.9375        0.537037        0.658521094890511        0        
C4        C        0.9687500000000001        0.481481        0.658521094890511        0        
C1        C        0.9375        0.574075        0.658521094890511        0        
C2        C        0.9687500000000001        0.62963        0.658521094890511        0        
C3        C        0.9375        0.648148        0.658521094890511        0        
C4        C        0.9687500000000001        0.592592        0.658521094890511        0        
C1        C        0.0        0.685186        0.658521094890511        0        
C1        C        0.0625        0.685186        0.658521094890511        0        
C1        C        0.125        0.685186        0.658521094890511        0        
C1        C        0.1875        0.685186        0.658521094890511        0        
C1        C        0.25        0.685186        0.658521094890511        0        
C1        C        0.3125        0.685186        0.658521094890511        0        
C1        C        0.375        0.685186        0.658521094890511        0        
C1        C        0.4375        0.685186        0.658521094890511        0        
C1        C        0.5        0.685186        0.658521094890511        0        
C1        C        0.5625        0.685186        0.658521094890511        0        
C1        C        0.625        0.685186        0.658521094890511        0        
C1        C        0.6875        0.685186        0.658521094890511        0        
C1        C        0.75        0.685186        0.658521094890511        0        
C1        C        0.8125        0.685186        0.658521094890511        0        
C1        C        0.875        0.685186        0.658521094890511        0        
C1        C        0.9375        0.685186        0.658521094890511        0        
C2        C        0.03125        0.740741        0.658521094890511        0        
C2        C        0.09375        0.740741        0.658521094890511        0        
C2        C        0.15625        0.740741        0.658521094890511        0        
C2        C        0.21875        0.740741        0.658521094890511        0        
C2        C        0.28125        0.740741        0.658521094890511        0        
C2        C        0.34375        0.740741        0.658521094890511        0        
C2        C        0.40625        0.740741        0.658521094890511        0        
C2        C        0.46875        0.740741        0.658521094890511        0        
C2        C        0.53125        0.740741        0.658521094890511        0        
C2        C        0.59375        0.740741        0.658521094890511        0        
C2        C        0.65625        0.740741        0.658521094890511        0        
C2        C        0.71875        0.740741        0.658521094890511        0        
C2        C        0.78125        0.740741        0.658521094890511        0        
C2        C        0.84375        0.740741        0.658521094890511        0        
C2        C        0.9062500000000001        0.740741        0.658521094890511        0        
C2        C        0.9687500000000001        0.740741        0.658521094890511        0        
C3        C        0.0        0.759259        0.658521094890511        0        
C3        C        0.0625        0.759259        0.658521094890511        0        
C3        C        0.125        0.759259        0.658521094890511        0        
C3        C        0.1875        0.759259        0.658521094890511        0        
C3        C        0.25        0.759259        0.658521094890511        0        
C3        C        0.3125        0.759259        0.658521094890511        0        
C3        C        0.375        0.759259        0.658521094890511        0        
C3        C        0.4375        0.759259        0.658521094890511        0        
C3        C        0.5        0.759259        0.658521094890511        0        
C3        C        0.5625        0.759259        0.658521094890511        0        
C3        C        0.625        0.759259        0.658521094890511        0        
C3        C        0.6875        0.759259        0.658521094890511        0        
C3        C        0.75        0.759259        0.658521094890511        0        
C3        C        0.8125        0.759259        0.658521094890511        0        
C3        C        0.875        0.759259        0.658521094890511        0        
C3        C        0.9375        0.759259        0.658521094890511        0        
C4        C        0.03125        0.703703        0.658521094890511        0        
C4        C        0.09375        0.703703        0.658521094890511        0        
C4        C        0.15625        0.703703        0.658521094890511        0        
C4        C        0.21875        0.703703        0.658521094890511        0        
C4        C        0.28125        0.703703        0.658521094890511        0        
C4        C        0.34375        0.703703        0.658521094890511        0        
C4        C        0.40625        0.703703        0.658521094890511        0        
C4        C        0.46875        0.703703        0.658521094890511        0        
C4        C        0.53125        0.703703        0.658521094890511        0        
C4        C        0.59375        0.703703        0.658521094890511        0        
C4        C        0.65625        0.703703        0.658521094890511        0        
C4        C        0.71875        0.703703        0.658521094890511        0        
C4        C        0.78125        0.703703        0.658521094890511        0        
C4        C        0.84375        0.703703        0.658521094890511        0        
C4        C        0.9062500000000001        0.703703        0.658521094890511        0        
C4        C        0.9687500000000001        0.703703        0.658521094890511        0        
C1        C        0.0        0.796297        0.658521094890511        0        
C1        C        0.0625        0.796297        0.658521094890511        0        
C1        C        0.125        0.796297        0.658521094890511        0        
C1        C        0.1875        0.796297        0.658521094890511        0        
C1        C        0.25        0.796297        0.658521094890511        0        
C1        C        0.3125        0.796297        0.658521094890511        0        
C1        C        0.375        0.796297        0.658521094890511        0        
C1        C        0.4375        0.796297        0.658521094890511        0        
C1        C        0.5        0.796297        0.658521094890511        0        
C1        C        0.5625        0.796297        0.658521094890511        0        
C1        C        0.625        0.796297        0.658521094890511        0        
C1        C        0.6875        0.796297        0.658521094890511        0        
C1        C        0.75        0.796297        0.658521094890511        0        
C1        C        0.8125        0.796297        0.658521094890511        0        
C1        C        0.875        0.796297        0.658521094890511        0        
C1        C        0.9375        0.796297        0.658521094890511        0        
C2        C        0.03125        0.851852        0.658521094890511        0        
C2        C        0.09375        0.851852        0.658521094890511        0        
C2        C        0.15625        0.851852        0.658521094890511        0        
C2        C        0.21875        0.851852        0.658521094890511        0        
C2        C        0.28125        0.851852        0.658521094890511        0        
C2        C        0.34375        0.851852        0.658521094890511        0        
C2        C        0.40625        0.851852        0.658521094890511        0        
C2        C        0.46875        0.851852        0.658521094890511        0        
C2        C        0.53125        0.851852        0.658521094890511        0        
C2        C        0.59375        0.851852        0.658521094890511        0        
C2        C        0.65625        0.851852        0.658521094890511        0        
C2        C        0.71875        0.851852        0.658521094890511        0        
C2        C        0.78125        0.851852        0.658521094890511        0        
C2        C        0.84375        0.851852        0.658521094890511        0        
C2        C        0.9062500000000001        0.851852        0.658521094890511        0        
C2        C        0.9687500000000001        0.851852        0.658521094890511        0        
C3        C        0.0        0.87037        0.658521094890511        0        
C3        C        0.0625        0.87037        0.658521094890511        0        
C3        C        0.125        0.87037        0.658521094890511        0        
C3        C        0.1875        0.87037        0.658521094890511        0        
C3        C        0.25        0.87037        0.658521094890511        0        
C3        C        0.3125        0.87037        0.658521094890511        0        
C3        C        0.375        0.87037        0.658521094890511        0        
C3        C        0.4375        0.87037        0.658521094890511        0        
C3        C        0.5        0.87037        0.658521094890511        0        
C3        C        0.5625        0.87037        0.658521094890511        0        
C3        C        0.625        0.87037        0.658521094890511        0        
C3        C        0.6875        0.87037        0.658521094890511        0        
C3        C        0.75        0.87037        0.658521094890511        0        
C3        C        0.8125        0.87037        0.658521094890511        0        
C3        C        0.875        0.87037        0.658521094890511        0        
C3        C        0.9375        0.87037        0.658521094890511        0        
C4        C        0.03125        0.814814        0.658521094890511        0        
C4        C        0.09375        0.814814        0.658521094890511        0        
C4        C        0.15625        0.814814        0.658521094890511        0        
C4        C        0.21875        0.814814        0.658521094890511        0        
C4        C        0.28125        0.814814        0.658521094890511        0        
C4        C        0.34375        0.814814        0.658521094890511        0        
C4        C        0.40625        0.814814        0.658521094890511        0        
C4        C        0.46875        0.814814        0.658521094890511        0        
C4        C        0.53125        0.814814        0.658521094890511        0        
C4        C        0.59375        0.814814        0.658521094890511        0        
C4        C        0.65625        0.814814        0.658521094890511        0        
C4        C        0.71875        0.814814        0.658521094890511        0        
C4        C        0.78125        0.814814        0.658521094890511        0        
C4        C        0.84375        0.814814        0.658521094890511        0        
C4        C        0.9062500000000001        0.814814        0.658521094890511        0        
C4        C        0.9687500000000001        0.814814        0.658521094890511        0        
C1        C        0.0        0.907408        0.658521094890511        0        
C1        C        0.0625        0.907408        0.658521094890511        0        
C1        C        0.125        0.907408        0.658521094890511        0        
C1        C        0.1875        0.907408        0.658521094890511        0        
C1        C        0.25        0.907408        0.658521094890511        0        
C1        C        0.3125        0.907408        0.658521094890511        0        
C1        C        0.375        0.907408        0.658521094890511        0        
C1        C        0.4375        0.907408        0.658521094890511        0        
C1        C        0.5        0.907408        0.658521094890511        0        
C1        C        0.5625        0.907408        0.658521094890511        0        
C1        C        0.625        0.907408        0.658521094890511        0        
C1        C        0.6875        0.907408        0.658521094890511        0        
C1        C        0.75        0.907408        0.658521094890511        0        
C1        C        0.8125        0.907408        0.658521094890511        0        
C1        C        0.875        0.907408        0.658521094890511        0        
C1        C        0.9375        0.907408        0.658521094890511        0        
C2        C        0.03125        0.962963        0.658521094890511        0        
C2        C        0.09375        0.962963        0.658521094890511        0        
C2        C        0.15625        0.962963        0.658521094890511        0        
C2        C        0.21875        0.962963        0.658521094890511        0        
C2        C        0.28125        0.962963        0.658521094890511        0        
C2        C        0.34375        0.962963        0.658521094890511        0        
C2        C        0.40625        0.962963        0.658521094890511        0        
C2        C        0.46875        0.962963        0.658521094890511        0        
C2        C        0.53125        0.962963        0.658521094890511        0        
C2        C        0.59375        0.962963        0.658521094890511        0        
C2        C        0.65625        0.962963        0.658521094890511        0        
C2        C        0.71875        0.962963        0.658521094890511        0        
C2        C        0.78125        0.962963        0.658521094890511        0        
C2        C        0.84375        0.962963        0.658521094890511        0        
C2        C        0.9062500000000001        0.962963        0.658521094890511        0        
C2        C        0.9687500000000001        0.962963        0.658521094890511        0        
C3        C        0.0        0.9814809999999999        0.658521094890511        0        
C3        C        0.0625        0.9814809999999999        0.658521094890511        0        
C3        C        0.125        0.9814809999999999        0.658521094890511        0        
C3        C        0.1875        0.9814809999999999        0.658521094890511        0        
C3        C        0.25        0.9814809999999999        0.658521094890511        0        
C3        C        0.3125        0.9814809999999999        0.658521094890511        0        
C3        C        0.375        0.9814809999999999        0.658521094890511        0        
C3        C        0.4375        0.9814809999999999        0.658521094890511        0        
C3        C        0.5        0.9814809999999999        0.658521094890511        0        
C3        C        0.5625        0.9814809999999999        0.658521094890511        0        
C3        C        0.625        0.9814809999999999        0.658521094890511        0        
C3        C        0.6875        0.9814809999999999        0.658521094890511        0        
C3        C        0.75        0.9814809999999999        0.658521094890511        0        
C3        C        0.8125        0.9814809999999999        0.658521094890511        0        
C3        C        0.875        0.9814809999999999        0.658521094890511        0        
C3        C        0.9375        0.9814809999999999        0.658521094890511        0        
C4        C        0.03125        0.925925        0.658521094890511        0        
C4        C        0.09375        0.925925        0.658521094890511        0        
C4        C        0.15625        0.925925        0.658521094890511        0        
C4        C        0.21875        0.925925        0.658521094890511        0        
C4        C        0.28125        0.925925        0.658521094890511        0        
C4        C        0.34375        0.925925        0.658521094890511        0        
C4        C        0.40625        0.925925        0.658521094890511        0        
C4        C        0.46875        0.925925        0.658521094890511        0        
C4        C        0.53125        0.925925        0.658521094890511        0        
C4        C        0.59375        0.925925        0.658521094890511        0        
C4        C        0.65625        0.925925        0.658521094890511        0        
C4        C        0.71875        0.925925        0.658521094890511        0        
C4        C        0.78125        0.925925        0.658521094890511        0        
C4        C        0.84375        0.925925        0.658521094890511        0        
C4        C        0.9062500000000001        0.925925        0.658521094890511        0        
C4        C        0.9687500000000001        0.925925        0.658521094890511        0        
O_OH        O        0.0        0.018519        0.0648714598540146        -0.64        
H_OH        H        0.001851374436421629        0.04189531200985798        0.04033138686131387        0.44        
O_OH        O        0.0        0.203703        0.0648714598540146        -0.64        
H_OH        H        0.012080705501906626        0.22360908530787638        0.04033138686131387        0.44        
O_CO        O        0.0        0.351852        0.0648714598540146        -0.5        
O_OH        O        0.0        0.537037        0.0648714598540146        -0.64        
H_OH        H        0.018919903078336592        0.5501824072407537        0.04033138686131387        0.44        
C_COOH        C        0.25        0.018519        0.05852109489051095        0.55        
O1_COOH        O        0.22473439104445456        0.0326993104991        0.026764963503649628        -0.5        
O2_COOH        O        0.27459978778609034        0.004712381302129084        0.0        -0.58        
H_COOH        H        0.29186928511183996        -0.004980115509381867        0.042610218978102195        0.45        
C_COOH        C        0.25        0.203703        0.05852109489051095        0.55        
O1_COOH        O        0.24972778342076227        0.2332626241879101        0.026764963503649628        -0.5        
O2_COOH        O        0.2502650428926089        0.1749223565831482        0.0        -0.58        
H_COOH        H        0.25045110781174235        0.15471782275372575        0.042610218978102195        0.45        
C_COOH        C        0.25        0.351852        0.05852109489051095        0.55        
O1_COOH        O        0.2286708744318693        0.37171125045891235        0.026764963503649628        -0.5        
O2_COOH        O        0.2707670420120124        0.33251609767761275        0.0        -0.58        
H_COOH        H        0.2853458822690395        0.31894194344705323        0.042610218978102195        0.45        
O_CO        O        0.25        0.537037        0.0648714598540146        -0.5        
C_COOH        C        0.5        0.018519        0.05852109489051095        0.55        
O1_COOH        O        0.5078564004590718        0.04695838462066632        0.026764963503649628        -0.5        
O2_COOH        O        0.4923506381977273        -0.009170925371137345        0.0        -0.58        
H_COOH        H        0.48698064743452507        -0.028609755344193077        0.042610218978102195        0.45        
C_COOH        C        0.5        0.203703        0.05852109489051095        0.55        
O1_COOH        O        0.47227645388431777        0.2116914270961028        0.026764963503649628        -0.5        
O2_COOH        O        0.526992951261283        0.19592509084077306        0.0        -0.58        
H_COOH        H        0.5459424927644173        0.19046485750082762        0.042610218978102195        0.45        
O_OH        O        0.5        0.351852        0.0648714598540146        -0.64        
H_OH        H        0.4830200978500078        0.3675428379693373        0.04033138686131387        0.44        
O_CO        O        0.5        0.537037        0.0648714598540146        -0.5        
O_CO        O        0.75        0.018519        0.0648714598540146        -0.5        
C_COOH        C        0.75        0.203703        0.05852109489051095        0.55        
O1_COOH        O        0.752877902729872        0.2331159326328914        0.026764963503649628        -0.5        
O2_COOH        O        0.7471979382508284        0.1750651823954934        0.0        -0.58        
H_COOH        H        0.7452308400667023        0.1549609148775445        0.042610218978102195        0.45        
C_COOH        C        0.75        0.351852        0.05852109489051095        0.55        
O1_COOH        O        0.7781274669782853        0.35817965896530046        0.026764963503649628        -0.5        
O2_COOH        O        0.7226137723478773        0.34569109297404926        0.0        -0.58        
H_COOH        H        0.7033881436833841        0.34136602446801084        0.042610218978102195        0.45        
O_CO        O        0.75        0.537037        0.0648714598540146        -0.5        
O_OH        O        0.0        0.685186        0.0648714598540146        -0.64        
H_OH        H        0.003904428440035214        0.7082943938446391        0.04033138686131387        0.44        
C_COOH        C        0.25        0.685186        0.05852109489051095        0.55        
O1_COOH        O        0.22320003000260388        0.6959974110040219        0.026764963503649628        -0.5        
O2_COOH        O        0.27609371401930255        0.6746595006452806        0.0        -0.58        
H_COOH        H        0.2944119746642184        0.6672697071219956        0.042610218978102195        0.45        
O_OH        O        0.5        0.685186        0.0648714598540146        -0.64        
H_OH        H        0.5227480455498142        0.6873518057883146        0.04033138686131387        0.44        
O_CO        O        0.75        0.685186        0.0648714598540146        -0.5        
C_COOH        C        0.0        0.87037        0.05852109489051095        0.55        
O1_COOH        O        -0.013777038785340154        0.8963278326243842        0.026764963503649628        -0.5        
O2_COOH        O        0.013413974348942702        0.8450962306216233        0.0        -0.58        
H_COOH        H        0.022830827703983647        0.827353585990425        0.042610218978102195        0.45        
C_COOH        C        0.25        0.87037        0.05852109489051095        0.55        
O1_COOH        O        0.2775740209494764        0.8788864043192927        0.026764963503649628        -0.5        
O2_COOH        O        0.22315263348847766        0.8620780273298079        0.0        -0.58        
H_COOH        H        0.20430529512093634        0.8562569120788041        0.042610218978102195        0.45        
O_CO        O        0.5        0.87037        0.0648714598540146        -0.5        
O_OH        O        0.75        0.87037        0.0648714598540146        -0.64        
H_OH        H        0.7711293211529169        0.8792888270582289        0.04033138686131387        0.44        
O_OH        O        0.0        0.018519        0.7631196350364964        -0.64        
H_OH        H        -0.0055541846927985175        0.04126877217681752        0.7876597080291972        0.44        
O_OH        O        0.0        0.203703        0.7631196350364964        -0.64        
H_OH        H        -0.012113838339407306        0.22358785296830108        0.7876597080291972        0.44        
O_CO        O        0.0        0.351852        0.7631196350364964        -0.5        
O_OH        O        0.0        0.537037        0.7631196350364964        -0.64        
H_OH        H        0.019968277110517595        0.548431483579096        0.7876597080291972        0.44        
C_COOH        C        0.25        0.018519        0.76947        0.55        
O1_COOH        O        0.2463979391826112        0.04784774164806736        0.8012261313868613        -0.5        
O2_COOH        O        0.25350713619672754        -0.010036845293298251        0.827991094890511        -0.58        
H_COOH        H        0.2559692094348012        -0.030083566761602027        0.7853808759124088        0.45        
C_COOH        C        0.25        0.203703        0.76947        0.55        
O1_COOH        O        0.26789300727012216        0.22686391679293968        0.8012261313868613        -0.5        
O2_COOH        O        0.23257852472606377        0.18115243970912842        0.827991094890511        -0.58        
H_COOH        H        0.22034833301587461        0.16532153726298762        0.7853808759124088        0.45        
C_COOH        C        0.25        0.351852        0.76947        0.55        
O1_COOH        O        0.27614501743708547        0.3642387944097806        0.8012261313868613        -0.5        
O2_COOH        O        0.22454397866492867        0.33979163310495825        0.827991094890511        -0.58        
H_COOH        H        0.20667338985363767        0.33132503674028346        0.7853808759124088        0.45        
O_CO        O        0.25        0.537037        0.7631196350364964        -0.5        
C_COOH        C        0.5        0.018519        0.76947        0.55        
O1_COOH        O        0.4973638550560531        0.04795580593043412        0.8012261313868613        -0.5        
O2_COOH        O        0.5025666749734222        -0.010142061772273909        0.827991094890511        -0.58        
H_COOH        H        0.5043685273704842        -0.03026264711770115        0.7853808759124088        0.45        
C_COOH        C        0.5        0.203703        0.76947        0.55        
O1_COOH        O        0.4831326920583265        0.22766138051331683        0.8012261313868613        -0.5        
O2_COOH        O        0.5164228060609136        0.18037599144212246        0.827991094890511        -0.58        
H_COOH        H        0.5279519138652752        0.16400000822588556        0.7853808759124088        0.45        
O_OH        O        0.5        0.351852        0.7631196350364964        -0.64        
H_OH        H        0.480759968350114        0.3644982249196488        0.7876597080291972        0.44        
O_CO        O        0.5        0.537037        0.7631196350364964        -0.5        
O_CO        O        0.75        0.018519        0.7631196350364964        -0.5        
C_COOH        C        0.75        0.203703        0.76947        0.55        
O1_COOH        O        0.7450468416380052        0.2328233183439125        0.8012261313868613        -0.5        
O2_COOH        O        0.7548226284508067        0.17535008545976238        0.827991094890511        -0.58        
H_COOH        H        0.7582082011174696        0.15544582506176408        0.7853808759124088        0.45        
C_COOH        C        0.75        0.351852        0.76947        0.55        
O1_COOH        O        0.7787535093098638        0.35343611764188015        0.8012261313868613        -0.5        
O2_COOH        O        0.7220042280250376        0.3503096283956972        0.827991094890511        -0.58        
H_COOH        H        0.7023506881872962        0.34922685554710853        0.7853808759124088        0.45        
O_CO        O        0.75        0.537037        0.7631196350364964        -0.5        
O_OH        O        0.0        0.685186        0.7631196350364964        -0.64        
H_OH        H        0.022176513026304474        0.6908207934985153        0.7876597080291972        0.44        
C_COOH        C        0.25        0.685186        0.76947        0.55        
O1_COOH        O        0.2786418304822503        0.6882298241694974        0.8012261313868613        -0.5        
O2_COOH        O        0.22211296379563875        0.6822223893164199        0.827991094890511        -0.58        
H_COOH        H        0.20253575844159047        0.6801418808494489        0.7853808759124088        0.45        
O_OH        O        0.5        0.685186        0.7631196350364964        -0.64        
H_OH        H        0.5213421929215086        0.6935536183431343        0.7876597080291972        0.44        
O_CO        O        0.75        0.685186        0.7631196350364964        -0.5        
C_COOH        C        0.0        0.87037        0.76947        0.55        
O1_COOH        O        0.017446484558724547        0.8938872009253717        0.8012261313868613        -0.5        
O2_COOH        O        -0.016986719715050714        0.847472544684164        0.827991094890511        -0.58        
H_COOH        H        -0.028911705135380206        0.8313981156369795        0.7853808759124088        0.45        
C_COOH        C        0.25        0.87037        0.76947        0.55        
O1_COOH        O        0.22171789204806627        0.8759238919133266        0.8012261313868613        -0.5        
O2_COOH        O        0.27753679339314574        0.8649624690477435        0.827991094890511        -0.58        
H_COOH        H        0.29686812193946527        0.8611662842135106        0.7853808759124088        0.45        
O_CO        O        0.5        0.87037        0.7631196350364964        -0.5        
O_OH        O        0.75        0.87037        0.7631196350364964        -0.64        
H_OH        H        0.7425076307901899        0.8925263118233929        0.7876597080291972        0.44        
