data_graphite_ortho

_audit_creation_method RASPA-1.0
_audit_creation_date 2012-2-3
_audit_author_name 'David Dubbeldam'

_cell_length_a    39.36    
_cell_length_b    38.34    
_cell_length_c    25.2    
_cell_angle_alpha 90
_cell_angle_beta  90
_cell_angle_gamma 90
_cell_volume      38028.37      

_symmetry_cell_setting          triclinic
_symmetry_space_group_name_Hall 'P 1'
_symmetry_space_group_name_H-M  'P 1'
_symmetry_Int_Tables_number     1

_symmetry_equiv_pos_as_xyz 'x,y,z'

loop_
_atom_site_label
_atom_site_type_symbol
_atom_site_fract_x
_atom_site_fract_y
_atom_site_fract_z
_atom_site_charge
C_Base_COOH        C        0.0        0.018519        0.0921325        0.08        
C_Base_COOH        C        0.03125        0.074075        0.0921325        0.08        
C_Base_COOH        C        0.0        0.092592        0.0921325        0.08        
C_Base_CO        C        0.03125        0.037037        0.0921325        0.5        
C_Base_CO        C        0.0        0.12963        0.0921325        0.5        
C_Base_CO        C        0.03125        0.185185        0.0921325        0.5        
C_Base_CO        C        0.0        0.203703        0.0921325        0.5        
C_Base_CO        C        0.03125        0.148148        0.0921325        0.5        
C_Base_CO        C        0.0        0.24074099999999998        0.0921325        0.5        
C_Base_COOH        C        0.03125        0.296297        0.0921325        0.08        
C_Base_COOH        C        0.0        0.314815        0.0921325        0.08        
C_Base_COOH        C        0.03125        0.259259        0.0921325        0.08        
C_Base_CO        C        0.0        0.351852        0.0921325        0.5        
C_Base_COOH        C        0.03125        0.407408        0.0921325        0.08        
C_Base_CO        C        0.0        0.42592500000000005        0.0921325        0.5        
C_Base_COOH        C        0.03125        0.37037        0.0921325        0.08        
C_Base_CO        C        0.0        0.46296300000000007        0.0921325        0.5        
C_Base_COOH        C        0.03125        0.518519        0.0921325        0.08        
C_Base_CO        C        0.0        0.537037        0.0921325        0.5        
C_Base_COOH        C        0.03125        0.481481        0.0921325        0.08        
C_Base_COOH        C        0.0        0.574075        0.0921325        0.08        
C_Base_COOH        C        0.03125        0.62963        0.0921325        0.08        
C_Base_CO        C        0.0        0.648148        0.0921325        0.5        
C_Base_CO        C        0.03125        0.592592        0.0921325        0.5        
C_Base_COOH        C        0.0625        0.018519        0.0921325        0.08        
C_Base_COOH        C        0.09375        0.074075        0.0921325        0.08        
C_Base_COOH        C        0.0625        0.092592        0.0921325        0.08        
C_Base_CO        C        0.09375        0.037037        0.0921325        0.5        
C_Base_CO        C        0.0625        0.12963        0.0921325        0.5        
C_Base_CO        C        0.09375        0.185185        0.0921325        0.5        
C_Base_CO        C        0.0625        0.203703        0.0921325        0.5        
C_Base_CO        C        0.09375        0.148148        0.0921325        0.5        
C_Base_CO        C        0.0625        0.24074099999999998        0.0921325        0.5        
C_Base_COOH        C        0.09375        0.296297        0.0921325        0.08        
C_Base_COOH        C        0.0625        0.314815        0.0921325        0.08        
C_Base_COOH        C        0.09375        0.259259        0.0921325        0.08        
C_Base_CO        C        0.0625        0.351852        0.0921325        0.5        
C_Base_COOH        C        0.09375        0.407408        0.0921325        0.08        
C_Base_CO        C        0.0625        0.42592500000000005        0.0921325        0.5        
C_Base_COOH        C        0.09375        0.37037        0.0921325        0.08        
C_Base_CO        C        0.0625        0.46296300000000007        0.0921325        0.5        
C_Base_COOH        C        0.09375        0.518519        0.0921325        0.08        
C_Base_CO        C        0.0625        0.537037        0.0921325        0.5        
C_Base_COOH        C        0.09375        0.481481        0.0921325        0.08        
C_Base_COOH        C        0.0625        0.574075        0.0921325        0.08        
C_Base_COOH        C        0.09375        0.62963        0.0921325        0.08        
C_Base_CO        C        0.0625        0.648148        0.0921325        0.5        
C_Base_CO        C        0.09375        0.592592        0.0921325        0.5        
C1        C        0.125        0.018519        0.0921325        0        
C2        C        0.15625        0.074075        0.0921325        0        
C3        C        0.125        0.092592        0.0921325        0        
C4        C        0.15625        0.037037        0.0921325        0        
C1        C        0.125        0.12963        0.0921325        0        
C2        C        0.15625        0.185185        0.0921325        0        
C3        C        0.125        0.203703        0.0921325        0        
C4        C        0.15625        0.148148        0.0921325        0        
C1        C        0.125        0.24074099999999998        0.0921325        0        
C2        C        0.15625        0.296297        0.0921325        0        
C3        C        0.125        0.314815        0.0921325        0        
C4        C        0.15625        0.259259        0.0921325        0        
C1        C        0.125        0.351852        0.0921325        0        
C2        C        0.15625        0.407408        0.0921325        0        
C3        C        0.125        0.42592500000000005        0.0921325        0        
C4        C        0.15625        0.37037        0.0921325        0        
C1        C        0.125        0.46296300000000007        0.0921325        0        
C2        C        0.15625        0.518519        0.0921325        0        
C3        C        0.125        0.537037        0.0921325        0        
C4        C        0.15625        0.481481        0.0921325        0        
C1        C        0.125        0.574075        0.0921325        0        
C2        C        0.15625        0.62963        0.0921325        0        
C3        C        0.125        0.648148        0.0921325        0        
C4        C        0.15625        0.592592        0.0921325        0        
C1        C        0.1875        0.018519        0.0921325        0        
C2        C        0.21875        0.074075        0.0921325        0        
C3        C        0.1875        0.092592        0.0921325        0        
C4        C        0.21875        0.037037        0.0921325        0        
C1        C        0.1875        0.12963        0.0921325        0        
C2        C        0.21875        0.185185        0.0921325        0        
C3        C        0.1875        0.203703        0.0921325        0        
C4        C        0.21875        0.148148        0.0921325        0        
C1        C        0.1875        0.24074099999999998        0.0921325        0        
C2        C        0.21875        0.296297        0.0921325        0        
C3        C        0.1875        0.314815        0.0921325        0        
C4        C        0.21875        0.259259        0.0921325        0        
C1        C        0.1875        0.351852        0.0921325        0        
C2        C        0.21875        0.407408        0.0921325        0        
C3        C        0.1875        0.42592500000000005        0.0921325        0        
C4        C        0.21875        0.37037        0.0921325        0        
C1        C        0.1875        0.46296300000000007        0.0921325        0        
C2        C        0.21875        0.518519        0.0921325        0        
C3        C        0.1875        0.537037        0.0921325        0        
C4        C        0.21875        0.481481        0.0921325        0        
C1        C        0.1875        0.574075        0.0921325        0        
C2        C        0.21875        0.62963        0.0921325        0        
C3        C        0.1875        0.648148        0.0921325        0        
C4        C        0.21875        0.592592        0.0921325        0        
C1        C        0.25        0.018519        0.0921325        0        
C2        C        0.28125        0.074075        0.0921325        0        
C3        C        0.25        0.092592        0.0921325        0        
C4        C        0.28125        0.037037        0.0921325        0        
C1        C        0.25        0.12963        0.0921325        0        
C2        C        0.28125        0.185185        0.0921325        0        
C3        C        0.25        0.203703        0.0921325        0        
C4        C        0.28125        0.148148        0.0921325        0        
C1        C        0.25        0.24074099999999998        0.0921325        0        
C2        C        0.28125        0.296297        0.0921325        0        
C3        C        0.25        0.314815        0.0921325        0        
C4        C        0.28125        0.259259        0.0921325        0        
C1        C        0.25        0.351852        0.0921325        0        
C2        C        0.28125        0.407408        0.0921325        0        
C3        C        0.25        0.42592500000000005        0.0921325        0        
C4        C        0.28125        0.37037        0.0921325        0        
C1        C        0.25        0.46296300000000007        0.0921325        0        
C2        C        0.28125        0.518519        0.0921325        0        
C3        C        0.25        0.537037        0.0921325        0        
C4        C        0.28125        0.481481        0.0921325        0        
C1        C        0.25        0.574075        0.0921325        0        
C2        C        0.28125        0.62963        0.0921325        0        
C3        C        0.25        0.648148        0.0921325        0        
C4        C        0.28125        0.592592        0.0921325        0        
C1        C        0.3125        0.018519        0.0921325        0        
C2        C        0.34375        0.074075        0.0921325        0        
C3        C        0.3125        0.092592        0.0921325        0        
C4        C        0.34375        0.037037        0.0921325        0        
C1        C        0.3125        0.12963        0.0921325        0        
C2        C        0.34375        0.185185        0.0921325        0        
C3        C        0.3125        0.203703        0.0921325        0        
C4        C        0.34375        0.148148        0.0921325        0        
C1        C        0.3125        0.24074099999999998        0.0921325        0        
C2        C        0.34375        0.296297        0.0921325        0        
C3        C        0.3125        0.314815        0.0921325        0        
C4        C        0.34375        0.259259        0.0921325        0        
C1        C        0.3125        0.351852        0.0921325        0        
C2        C        0.34375        0.407408        0.0921325        0        
C3        C        0.3125        0.42592500000000005        0.0921325        0        
C4        C        0.34375        0.37037        0.0921325        0        
C1        C        0.3125        0.46296300000000007        0.0921325        0        
C2        C        0.34375        0.518519        0.0921325        0        
C3        C        0.3125        0.537037        0.0921325        0        
C4        C        0.34375        0.481481        0.0921325        0        
C1        C        0.3125        0.574075        0.0921325        0        
C2        C        0.34375        0.62963        0.0921325        0        
C3        C        0.3125        0.648148        0.0921325        0        
C4        C        0.34375        0.592592        0.0921325        0        
C1        C        0.375        0.018519        0.0921325        0        
C2        C        0.40625        0.074075        0.0921325        0        
C3        C        0.375        0.092592        0.0921325        0        
C4        C        0.40625        0.037037        0.0921325        0        
C1        C        0.375        0.12963        0.0921325        0        
C2        C        0.40625        0.185185        0.0921325        0        
C3        C        0.375        0.203703        0.0921325        0        
C4        C        0.40625        0.148148        0.0921325        0        
C1        C        0.375        0.24074099999999998        0.0921325        0        
C2        C        0.40625        0.296297        0.0921325        0        
C3        C        0.375        0.314815        0.0921325        0        
C4        C        0.40625        0.259259        0.0921325        0        
C1        C        0.375        0.351852        0.0921325        0        
C2        C        0.40625        0.407408        0.0921325        0        
C3        C        0.375        0.42592500000000005        0.0921325        0        
C4        C        0.40625        0.37037        0.0921325        0        
C1        C        0.375        0.46296300000000007        0.0921325        0        
C2        C        0.40625        0.518519        0.0921325        0        
C3        C        0.375        0.537037        0.0921325        0        
C4        C        0.40625        0.481481        0.0921325        0        
C1        C        0.375        0.574075        0.0921325        0        
C2        C        0.40625        0.62963        0.0921325        0        
C3        C        0.375        0.648148        0.0921325        0        
C4        C        0.40625        0.592592        0.0921325        0        
C1        C        0.4375        0.018519        0.0921325        0        
C2        C        0.46875        0.074075        0.0921325        0        
C3        C        0.4375        0.092592        0.0921325        0        
C4        C        0.46875        0.037037        0.0921325        0        
C1        C        0.4375        0.12963        0.0921325        0        
C2        C        0.46875        0.185185        0.0921325        0        
C3        C        0.4375        0.203703        0.0921325        0        
C4        C        0.46875        0.148148        0.0921325        0        
C1        C        0.4375        0.24074099999999998        0.0921325        0        
C2        C        0.46875        0.296297        0.0921325        0        
C3        C        0.4375        0.314815        0.0921325        0        
C4        C        0.46875        0.259259        0.0921325        0        
C1        C        0.4375        0.351852        0.0921325        0        
C2        C        0.46875        0.407408        0.0921325        0        
C3        C        0.4375        0.42592500000000005        0.0921325        0        
C4        C        0.46875        0.37037        0.0921325        0        
C1        C        0.4375        0.46296300000000007        0.0921325        0        
C2        C        0.46875        0.518519        0.0921325        0        
C3        C        0.4375        0.537037        0.0921325        0        
C4        C        0.46875        0.481481        0.0921325        0        
C1        C        0.4375        0.574075        0.0921325        0        
C2        C        0.46875        0.62963        0.0921325        0        
C3        C        0.4375        0.648148        0.0921325        0        
C4        C        0.46875        0.592592        0.0921325        0        
C1        C        0.5        0.018519        0.0921325        0        
C2        C        0.53125        0.074075        0.0921325        0        
C3        C        0.5        0.092592        0.0921325        0        
C4        C        0.53125        0.037037        0.0921325        0        
C1        C        0.5        0.12963        0.0921325        0        
C2        C        0.53125        0.185185        0.0921325        0        
C3        C        0.5        0.203703        0.0921325        0        
C4        C        0.53125        0.148148        0.0921325        0        
C1        C        0.5        0.24074099999999998        0.0921325        0        
C2        C        0.53125        0.296297        0.0921325        0        
C3        C        0.5        0.314815        0.0921325        0        
C4        C        0.53125        0.259259        0.0921325        0        
C1        C        0.5        0.351852        0.0921325        0        
C2        C        0.53125        0.407408        0.0921325        0        
C3        C        0.5        0.42592500000000005        0.0921325        0        
C4        C        0.53125        0.37037        0.0921325        0        
C1        C        0.5        0.46296300000000007        0.0921325        0        
C2        C        0.53125        0.518519        0.0921325        0        
C3        C        0.5        0.537037        0.0921325        0        
C4        C        0.53125        0.481481        0.0921325        0        
C1        C        0.5        0.574075        0.0921325        0        
C2        C        0.53125        0.62963        0.0921325        0        
C3        C        0.5        0.648148        0.0921325        0        
C4        C        0.53125        0.592592        0.0921325        0        
C1        C        0.5625        0.018519        0.0921325        0        
C2        C        0.59375        0.074075        0.0921325        0        
C3        C        0.5625        0.092592        0.0921325        0        
C4        C        0.59375        0.037037        0.0921325        0        
C1        C        0.5625        0.12963        0.0921325        0        
C2        C        0.59375        0.185185        0.0921325        0        
C3        C        0.5625        0.203703        0.0921325        0        
C4        C        0.59375        0.148148        0.0921325        0        
C1        C        0.5625        0.24074099999999998        0.0921325        0        
C2        C        0.59375        0.296297        0.0921325        0        
C3        C        0.5625        0.314815        0.0921325        0        
C4        C        0.59375        0.259259        0.0921325        0        
C1        C        0.5625        0.351852        0.0921325        0        
C2        C        0.59375        0.407408        0.0921325        0        
C3        C        0.5625        0.42592500000000005        0.0921325        0        
C4        C        0.59375        0.37037        0.0921325        0        
C1        C        0.5625        0.46296300000000007        0.0921325        0        
C2        C        0.59375        0.518519        0.0921325        0        
C3        C        0.5625        0.537037        0.0921325        0        
C4        C        0.59375        0.481481        0.0921325        0        
C1        C        0.5625        0.574075        0.0921325        0        
C2        C        0.59375        0.62963        0.0921325        0        
C3        C        0.5625        0.648148        0.0921325        0        
C4        C        0.59375        0.592592        0.0921325        0        
C1        C        0.625        0.018519        0.0921325        0        
C2        C        0.65625        0.074075        0.0921325        0        
C3        C        0.625        0.092592        0.0921325        0        
C4        C        0.65625        0.037037        0.0921325        0        
C1        C        0.625        0.12963        0.0921325        0        
C2        C        0.65625        0.185185        0.0921325        0        
C3        C        0.625        0.203703        0.0921325        0        
C4        C        0.65625        0.148148        0.0921325        0        
C1        C        0.625        0.24074099999999998        0.0921325        0        
C2        C        0.65625        0.296297        0.0921325        0        
C3        C        0.625        0.314815        0.0921325        0        
C4        C        0.65625        0.259259        0.0921325        0        
C1        C        0.625        0.351852        0.0921325        0        
C2        C        0.65625        0.407408        0.0921325        0        
C3        C        0.625        0.42592500000000005        0.0921325        0        
C4        C        0.65625        0.37037        0.0921325        0        
C1        C        0.625        0.46296300000000007        0.0921325        0        
C2        C        0.65625        0.518519        0.0921325        0        
C3        C        0.625        0.537037        0.0921325        0        
C4        C        0.65625        0.481481        0.0921325        0        
C1        C        0.625        0.574075        0.0921325        0        
C2        C        0.65625        0.62963        0.0921325        0        
C3        C        0.625        0.648148        0.0921325        0        
C4        C        0.65625        0.592592        0.0921325        0        
C1        C        0.6875        0.018519        0.0921325        0        
C2        C        0.71875        0.074075        0.0921325        0        
C3        C        0.6875        0.092592        0.0921325        0        
C4        C        0.71875        0.037037        0.0921325        0        
C1        C        0.6875        0.12963        0.0921325        0        
C2        C        0.71875        0.185185        0.0921325        0        
C3        C        0.6875        0.203703        0.0921325        0        
C4        C        0.71875        0.148148        0.0921325        0        
C1        C        0.6875        0.24074099999999998        0.0921325        0        
C2        C        0.71875        0.296297        0.0921325        0        
C3        C        0.6875        0.314815        0.0921325        0        
C4        C        0.71875        0.259259        0.0921325        0        
C1        C        0.6875        0.351852        0.0921325        0        
C2        C        0.71875        0.407408        0.0921325        0        
C3        C        0.6875        0.42592500000000005        0.0921325        0        
C4        C        0.71875        0.37037        0.0921325        0        
C1        C        0.6875        0.46296300000000007        0.0921325        0        
C2        C        0.71875        0.518519        0.0921325        0        
C3        C        0.6875        0.537037        0.0921325        0        
C4        C        0.71875        0.481481        0.0921325        0        
C1        C        0.6875        0.574075        0.0921325        0        
C2        C        0.71875        0.62963        0.0921325        0        
C3        C        0.6875        0.648148        0.0921325        0        
C4        C        0.71875        0.592592        0.0921325        0        
C1        C        0.75        0.018519        0.0921325        0        
C2        C        0.78125        0.074075        0.0921325        0        
C3        C        0.75        0.092592        0.0921325        0        
C4        C        0.78125        0.037037        0.0921325        0        
C1        C        0.75        0.12963        0.0921325        0        
C2        C        0.78125        0.185185        0.0921325        0        
C3        C        0.75        0.203703        0.0921325        0        
C4        C        0.78125        0.148148        0.0921325        0        
C1        C        0.75        0.24074099999999998        0.0921325        0        
C2        C        0.78125        0.296297        0.0921325        0        
C3        C        0.75        0.314815        0.0921325        0        
C4        C        0.78125        0.259259        0.0921325        0        
C1        C        0.75        0.351852        0.0921325        0        
C2        C        0.78125        0.407408        0.0921325        0        
C3        C        0.75        0.42592500000000005        0.0921325        0        
C4        C        0.78125        0.37037        0.0921325        0        
C1        C        0.75        0.46296300000000007        0.0921325        0        
C2        C        0.78125        0.518519        0.0921325        0        
C3        C        0.75        0.537037        0.0921325        0        
C4        C        0.78125        0.481481        0.0921325        0        
C1        C        0.75        0.574075        0.0921325        0        
C2        C        0.78125        0.62963        0.0921325        0        
C3        C        0.75        0.648148        0.0921325        0        
C4        C        0.78125        0.592592        0.0921325        0        
C1        C        0.8125        0.018519        0.0921325        0        
C2        C        0.84375        0.074075        0.0921325        0        
C3        C        0.8125        0.092592        0.0921325        0        
C4        C        0.84375        0.037037        0.0921325        0        
C1        C        0.8125        0.12963        0.0921325        0        
C2        C        0.84375        0.185185        0.0921325        0        
C3        C        0.8125        0.203703        0.0921325        0        
C4        C        0.84375        0.148148        0.0921325        0        
C1        C        0.8125        0.24074099999999998        0.0921325        0        
C2        C        0.84375        0.296297        0.0921325        0        
C3        C        0.8125        0.314815        0.0921325        0        
C4        C        0.84375        0.259259        0.0921325        0        
C1        C        0.8125        0.351852        0.0921325        0        
C2        C        0.84375        0.407408        0.0921325        0        
C3        C        0.8125        0.42592500000000005        0.0921325        0        
C4        C        0.84375        0.37037        0.0921325        0        
C1        C        0.8125        0.46296300000000007        0.0921325        0        
C2        C        0.84375        0.518519        0.0921325        0        
C3        C        0.8125        0.537037        0.0921325        0        
C4        C        0.84375        0.481481        0.0921325        0        
C1        C        0.8125        0.574075        0.0921325        0        
C2        C        0.84375        0.62963        0.0921325        0        
C3        C        0.8125        0.648148        0.0921325        0        
C4        C        0.84375        0.592592        0.0921325        0        
C1        C        0.875        0.018519        0.0921325        0        
C2        C        0.9062500000000001        0.074075        0.0921325        0        
C3        C        0.875        0.092592        0.0921325        0        
C4        C        0.9062500000000001        0.037037        0.0921325        0        
C1        C        0.875        0.12963        0.0921325        0        
C2        C        0.9062500000000001        0.185185        0.0921325        0        
C3        C        0.875        0.203703        0.0921325        0        
C4        C        0.9062500000000001        0.148148        0.0921325        0        
C1        C        0.875        0.24074099999999998        0.0921325        0        
C2        C        0.9062500000000001        0.296297        0.0921325        0        
C3        C        0.875        0.314815        0.0921325        0        
C4        C        0.9062500000000001        0.259259        0.0921325        0        
C1        C        0.875        0.351852        0.0921325        0        
C2        C        0.9062500000000001        0.407408        0.0921325        0        
C3        C        0.875        0.42592500000000005        0.0921325        0        
C4        C        0.9062500000000001        0.37037        0.0921325        0        
C1        C        0.875        0.46296300000000007        0.0921325        0        
C2        C        0.9062500000000001        0.518519        0.0921325        0        
C3        C        0.875        0.537037        0.0921325        0        
C4        C        0.9062500000000001        0.481481        0.0921325        0        
C1        C        0.875        0.574075        0.0921325        0        
C2        C        0.9062500000000001        0.62963        0.0921325        0        
C3        C        0.875        0.648148        0.0921325        0        
C4        C        0.9062500000000001        0.592592        0.0921325        0        
C1        C        0.9375        0.018519        0.0921325        0        
C2        C        0.9687500000000001        0.074075        0.0921325        0        
C3        C        0.9375        0.092592        0.0921325        0        
C4        C        0.9687500000000001        0.037037        0.0921325        0        
C1        C        0.9375        0.12963        0.0921325        0        
C2        C        0.9687500000000001        0.185185        0.0921325        0        
C3        C        0.9375        0.203703        0.0921325        0        
C4        C        0.9687500000000001        0.148148        0.0921325        0        
C1        C        0.9375        0.24074099999999998        0.0921325        0        
C2        C        0.9687500000000001        0.296297        0.0921325        0        
C3        C        0.9375        0.314815        0.0921325        0        
C4        C        0.9687500000000001        0.259259        0.0921325        0        
C1        C        0.9375        0.351852        0.0921325        0        
C2        C        0.9687500000000001        0.407408        0.0921325        0        
C3        C        0.9375        0.42592500000000005        0.0921325        0        
C4        C        0.9687500000000001        0.37037        0.0921325        0        
C1        C        0.9375        0.46296300000000007        0.0921325        0        
C2        C        0.9687500000000001        0.518519        0.0921325        0        
C3        C        0.9375        0.537037        0.0921325        0        
C4        C        0.9687500000000001        0.481481        0.0921325        0        
C1        C        0.9375        0.574075        0.0921325        0        
C2        C        0.9687500000000001        0.62963        0.0921325        0        
C3        C        0.9375        0.648148        0.0921325        0        
C4        C        0.9687500000000001        0.592592        0.0921325        0        
C1        C        0.0        0.685186        0.0921325        0        
C1        C        0.0625        0.685186        0.0921325        0        
C1        C        0.125        0.685186        0.0921325        0        
C1        C        0.1875        0.685186        0.0921325        0        
C1        C        0.25        0.685186        0.0921325        0        
C1        C        0.3125        0.685186        0.0921325        0        
C1        C        0.375        0.685186        0.0921325        0        
C1        C        0.4375        0.685186        0.0921325        0        
C1        C        0.5        0.685186        0.0921325        0        
C1        C        0.5625        0.685186        0.0921325        0        
C1        C        0.625        0.685186        0.0921325        0        
C1        C        0.6875        0.685186        0.0921325        0        
C1        C        0.75        0.685186        0.0921325        0        
C1        C        0.8125        0.685186        0.0921325        0        
C1        C        0.875        0.685186        0.0921325        0        
C1        C        0.9375        0.685186        0.0921325        0        
C2        C        0.03125        0.740741        0.0921325        0        
C2        C        0.09375        0.740741        0.0921325        0        
C2        C        0.15625        0.740741        0.0921325        0        
C2        C        0.21875        0.740741        0.0921325        0        
C2        C        0.28125        0.740741        0.0921325        0        
C2        C        0.34375        0.740741        0.0921325        0        
C2        C        0.40625        0.740741        0.0921325        0        
C2        C        0.46875        0.740741        0.0921325        0        
C2        C        0.53125        0.740741        0.0921325        0        
C2        C        0.59375        0.740741        0.0921325        0        
C2        C        0.65625        0.740741        0.0921325        0        
C2        C        0.71875        0.740741        0.0921325        0        
C2        C        0.78125        0.740741        0.0921325        0        
C2        C        0.84375        0.740741        0.0921325        0        
C2        C        0.9062500000000001        0.740741        0.0921325        0        
C2        C        0.9687500000000001        0.740741        0.0921325        0        
C3        C        0.0        0.759259        0.0921325        0        
C3        C        0.0625        0.759259        0.0921325        0        
C3        C        0.125        0.759259        0.0921325        0        
C3        C        0.1875        0.759259        0.0921325        0        
C3        C        0.25        0.759259        0.0921325        0        
C3        C        0.3125        0.759259        0.0921325        0        
C3        C        0.375        0.759259        0.0921325        0        
C3        C        0.4375        0.759259        0.0921325        0        
C3        C        0.5        0.759259        0.0921325        0        
C3        C        0.5625        0.759259        0.0921325        0        
C3        C        0.625        0.759259        0.0921325        0        
C3        C        0.6875        0.759259        0.0921325        0        
C3        C        0.75        0.759259        0.0921325        0        
C3        C        0.8125        0.759259        0.0921325        0        
C3        C        0.875        0.759259        0.0921325        0        
C3        C        0.9375        0.759259        0.0921325        0        
C4        C        0.03125        0.703703        0.0921325        0        
C4        C        0.09375        0.703703        0.0921325        0        
C4        C        0.15625        0.703703        0.0921325        0        
C4        C        0.21875        0.703703        0.0921325        0        
C4        C        0.28125        0.703703        0.0921325        0        
C4        C        0.34375        0.703703        0.0921325        0        
C4        C        0.40625        0.703703        0.0921325        0        
C4        C        0.46875        0.703703        0.0921325        0        
C4        C        0.53125        0.703703        0.0921325        0        
C4        C        0.59375        0.703703        0.0921325        0        
C4        C        0.65625        0.703703        0.0921325        0        
C4        C        0.71875        0.703703        0.0921325        0        
C4        C        0.78125        0.703703        0.0921325        0        
C4        C        0.84375        0.703703        0.0921325        0        
C4        C        0.9062500000000001        0.703703        0.0921325        0        
C4        C        0.9687500000000001        0.703703        0.0921325        0        
C1        C        0.0        0.796297        0.0921325        0        
C1        C        0.0625        0.796297        0.0921325        0        
C1        C        0.125        0.796297        0.0921325        0        
C1        C        0.1875        0.796297        0.0921325        0        
C1        C        0.25        0.796297        0.0921325        0        
C1        C        0.3125        0.796297        0.0921325        0        
C1        C        0.375        0.796297        0.0921325        0        
C1        C        0.4375        0.796297        0.0921325        0        
C1        C        0.5        0.796297        0.0921325        0        
C1        C        0.5625        0.796297        0.0921325        0        
C1        C        0.625        0.796297        0.0921325        0        
C1        C        0.6875        0.796297        0.0921325        0        
C1        C        0.75        0.796297        0.0921325        0        
C1        C        0.8125        0.796297        0.0921325        0        
C1        C        0.875        0.796297        0.0921325        0        
C1        C        0.9375        0.796297        0.0921325        0        
C2        C        0.03125        0.851852        0.0921325        0        
C2        C        0.09375        0.851852        0.0921325        0        
C2        C        0.15625        0.851852        0.0921325        0        
C2        C        0.21875        0.851852        0.0921325        0        
C2        C        0.28125        0.851852        0.0921325        0        
C2        C        0.34375        0.851852        0.0921325        0        
C2        C        0.40625        0.851852        0.0921325        0        
C2        C        0.46875        0.851852        0.0921325        0        
C2        C        0.53125        0.851852        0.0921325        0        
C2        C        0.59375        0.851852        0.0921325        0        
C2        C        0.65625        0.851852        0.0921325        0        
C2        C        0.71875        0.851852        0.0921325        0        
C2        C        0.78125        0.851852        0.0921325        0        
C2        C        0.84375        0.851852        0.0921325        0        
C2        C        0.9062500000000001        0.851852        0.0921325        0        
C2        C        0.9687500000000001        0.851852        0.0921325        0        
C3        C        0.0        0.87037        0.0921325        0        
C3        C        0.0625        0.87037        0.0921325        0        
C3        C        0.125        0.87037        0.0921325        0        
C3        C        0.1875        0.87037        0.0921325        0        
C3        C        0.25        0.87037        0.0921325        0        
C3        C        0.3125        0.87037        0.0921325        0        
C3        C        0.375        0.87037        0.0921325        0        
C3        C        0.4375        0.87037        0.0921325        0        
C3        C        0.5        0.87037        0.0921325        0        
C3        C        0.5625        0.87037        0.0921325        0        
C3        C        0.625        0.87037        0.0921325        0        
C3        C        0.6875        0.87037        0.0921325        0        
C3        C        0.75        0.87037        0.0921325        0        
C3        C        0.8125        0.87037        0.0921325        0        
C3        C        0.875        0.87037        0.0921325        0        
C3        C        0.9375        0.87037        0.0921325        0        
C4        C        0.03125        0.814814        0.0921325        0        
C4        C        0.09375        0.814814        0.0921325        0        
C4        C        0.15625        0.814814        0.0921325        0        
C4        C        0.21875        0.814814        0.0921325        0        
C4        C        0.28125        0.814814        0.0921325        0        
C4        C        0.34375        0.814814        0.0921325        0        
C4        C        0.40625        0.814814        0.0921325        0        
C4        C        0.46875        0.814814        0.0921325        0        
C4        C        0.53125        0.814814        0.0921325        0        
C4        C        0.59375        0.814814        0.0921325        0        
C4        C        0.65625        0.814814        0.0921325        0        
C4        C        0.71875        0.814814        0.0921325        0        
C4        C        0.78125        0.814814        0.0921325        0        
C4        C        0.84375        0.814814        0.0921325        0        
C4        C        0.9062500000000001        0.814814        0.0921325        0        
C4        C        0.9687500000000001        0.814814        0.0921325        0        
C1        C        0.0        0.907408        0.0921325        0        
C1        C        0.0625        0.907408        0.0921325        0        
C1        C        0.125        0.907408        0.0921325        0        
C1        C        0.1875        0.907408        0.0921325        0        
C1        C        0.25        0.907408        0.0921325        0        
C1        C        0.3125        0.907408        0.0921325        0        
C1        C        0.375        0.907408        0.0921325        0        
C1        C        0.4375        0.907408        0.0921325        0        
C1        C        0.5        0.907408        0.0921325        0        
C1        C        0.5625        0.907408        0.0921325        0        
C1        C        0.625        0.907408        0.0921325        0        
C1        C        0.6875        0.907408        0.0921325        0        
C1        C        0.75        0.907408        0.0921325        0        
C1        C        0.8125        0.907408        0.0921325        0        
C1        C        0.875        0.907408        0.0921325        0        
C1        C        0.9375        0.907408        0.0921325        0        
C2        C        0.03125        0.962963        0.0921325        0        
C2        C        0.09375        0.962963        0.0921325        0        
C2        C        0.15625        0.962963        0.0921325        0        
C2        C        0.21875        0.962963        0.0921325        0        
C2        C        0.28125        0.962963        0.0921325        0        
C2        C        0.34375        0.962963        0.0921325        0        
C2        C        0.40625        0.962963        0.0921325        0        
C2        C        0.46875        0.962963        0.0921325        0        
C2        C        0.53125        0.962963        0.0921325        0        
C2        C        0.59375        0.962963        0.0921325        0        
C2        C        0.65625        0.962963        0.0921325        0        
C2        C        0.71875        0.962963        0.0921325        0        
C2        C        0.78125        0.962963        0.0921325        0        
C2        C        0.84375        0.962963        0.0921325        0        
C2        C        0.9062500000000001        0.962963        0.0921325        0        
C2        C        0.9687500000000001        0.962963        0.0921325        0        
C3        C        0.0        0.9814809999999999        0.0921325        0        
C3        C        0.0625        0.9814809999999999        0.0921325        0        
C3        C        0.125        0.9814809999999999        0.0921325        0        
C3        C        0.1875        0.9814809999999999        0.0921325        0        
C3        C        0.25        0.9814809999999999        0.0921325        0        
C3        C        0.3125        0.9814809999999999        0.0921325        0        
C3        C        0.375        0.9814809999999999        0.0921325        0        
C3        C        0.4375        0.9814809999999999        0.0921325        0        
C3        C        0.5        0.9814809999999999        0.0921325        0        
C3        C        0.5625        0.9814809999999999        0.0921325        0        
C3        C        0.625        0.9814809999999999        0.0921325        0        
C3        C        0.6875        0.9814809999999999        0.0921325        0        
C3        C        0.75        0.9814809999999999        0.0921325        0        
C3        C        0.8125        0.9814809999999999        0.0921325        0        
C3        C        0.875        0.9814809999999999        0.0921325        0        
C3        C        0.9375        0.9814809999999999        0.0921325        0        
C4        C        0.03125        0.925925        0.0921325        0        
C4        C        0.09375        0.925925        0.0921325        0        
C4        C        0.15625        0.925925        0.0921325        0        
C4        C        0.21875        0.925925        0.0921325        0        
C4        C        0.28125        0.925925        0.0921325        0        
C4        C        0.34375        0.925925        0.0921325        0        
C4        C        0.40625        0.925925        0.0921325        0        
C4        C        0.46875        0.925925        0.0921325        0        
C4        C        0.53125        0.925925        0.0921325        0        
C4        C        0.59375        0.925925        0.0921325        0        
C4        C        0.65625        0.925925        0.0921325        0        
C4        C        0.71875        0.925925        0.0921325        0        
C4        C        0.78125        0.925925        0.0921325        0        
C4        C        0.84375        0.925925        0.0921325        0        
C4        C        0.9062500000000001        0.925925        0.0921325        0        
C4        C        0.9687500000000001        0.925925        0.0921325        0        
C1        C        0.0        0.018519        0.2250695        0        
C2        C        0.03125        0.074075        0.2250695        0        
C3        C        0.0        0.092592        0.2250695        0        
C4        C        0.03125        0.037037        0.2250695        0        
C1        C        0.0        0.12963        0.2250695        0        
C2        C        0.03125        0.185185        0.2250695        0        
C3        C        0.0        0.203703        0.2250695        0        
C4        C        0.03125        0.148148        0.2250695        0        
C1        C        0.0        0.24074099999999998        0.2250695        0        
C2        C        0.03125        0.296297        0.2250695        0        
C3        C        0.0        0.314815        0.2250695        0        
C4        C        0.03125        0.259259        0.2250695        0        
C1        C        0.0        0.351852        0.2250695        0        
C2        C        0.03125        0.407408        0.2250695        0        
C3        C        0.0        0.42592500000000005        0.2250695        0        
C4        C        0.03125        0.37037        0.2250695        0        
C1        C        0.0        0.46296300000000007        0.2250695        0        
C2        C        0.03125        0.518519        0.2250695        0        
C3        C        0.0        0.537037        0.2250695        0        
C4        C        0.03125        0.481481        0.2250695        0        
C1        C        0.0        0.574075        0.2250695        0        
C2        C        0.03125        0.62963        0.2250695        0        
C3        C        0.0        0.648148        0.2250695        0        
C4        C        0.03125        0.592592        0.2250695        0        
C1        C        0.0625        0.018519        0.2250695        0        
C2        C        0.09375        0.074075        0.2250695        0        
C3        C        0.0625        0.092592        0.2250695        0        
C4        C        0.09375        0.037037        0.2250695        0        
C1        C        0.0625        0.12963        0.2250695        0        
C2        C        0.09375        0.185185        0.2250695        0        
C3        C        0.0625        0.203703        0.2250695        0        
C4        C        0.09375        0.148148        0.2250695        0        
C1        C        0.0625        0.24074099999999998        0.2250695        0        
C2        C        0.09375        0.296297        0.2250695        0        
C3        C        0.0625        0.314815        0.2250695        0        
C4        C        0.09375        0.259259        0.2250695        0        
C1        C        0.0625        0.351852        0.2250695        0        
C2        C        0.09375        0.407408        0.2250695        0        
C3        C        0.0625        0.42592500000000005        0.2250695        0        
C4        C        0.09375        0.37037        0.2250695        0        
C1        C        0.0625        0.46296300000000007        0.2250695        0        
C2        C        0.09375        0.518519        0.2250695        0        
C3        C        0.0625        0.537037        0.2250695        0        
C4        C        0.09375        0.481481        0.2250695        0        
C1        C        0.0625        0.574075        0.2250695        0        
C2        C        0.09375        0.62963        0.2250695        0        
C3        C        0.0625        0.648148        0.2250695        0        
C4        C        0.09375        0.592592        0.2250695        0        
C1        C        0.125        0.018519        0.2250695        0        
C2        C        0.15625        0.074075        0.2250695        0        
C3        C        0.125        0.092592        0.2250695        0        
C4        C        0.15625        0.037037        0.2250695        0        
C1        C        0.125        0.12963        0.2250695        0        
C2        C        0.15625        0.185185        0.2250695        0        
C3        C        0.125        0.203703        0.2250695        0        
C4        C        0.15625        0.148148        0.2250695        0        
C1        C        0.125        0.24074099999999998        0.2250695        0        
C2        C        0.15625        0.296297        0.2250695        0        
C3        C        0.125        0.314815        0.2250695        0        
C4        C        0.15625        0.259259        0.2250695        0        
C1        C        0.125        0.351852        0.2250695        0        
C2        C        0.15625        0.407408        0.2250695        0        
C3        C        0.125        0.42592500000000005        0.2250695        0        
C4        C        0.15625        0.37037        0.2250695        0        
C1        C        0.125        0.46296300000000007        0.2250695        0        
C2        C        0.15625        0.518519        0.2250695        0        
C3        C        0.125        0.537037        0.2250695        0        
C4        C        0.15625        0.481481        0.2250695        0        
C1        C        0.125        0.574075        0.2250695        0        
C2        C        0.15625        0.62963        0.2250695        0        
C3        C        0.125        0.648148        0.2250695        0        
C4        C        0.15625        0.592592        0.2250695        0        
C1        C        0.1875        0.018519        0.2250695        0        
C2        C        0.21875        0.074075        0.2250695        0        
C3        C        0.1875        0.092592        0.2250695        0        
C4        C        0.21875        0.037037        0.2250695        0        
C1        C        0.1875        0.12963        0.2250695        0        
C2        C        0.21875        0.185185        0.2250695        0        
C3        C        0.1875        0.203703        0.2250695        0        
C4        C        0.21875        0.148148        0.2250695        0        
C1        C        0.1875        0.24074099999999998        0.2250695        0        
C2        C        0.21875        0.296297        0.2250695        0        
C3        C        0.1875        0.314815        0.2250695        0        
C4        C        0.21875        0.259259        0.2250695        0        
C1        C        0.1875        0.351852        0.2250695        0        
C2        C        0.21875        0.407408        0.2250695        0        
C3        C        0.1875        0.42592500000000005        0.2250695        0        
C4        C        0.21875        0.37037        0.2250695        0        
C1        C        0.1875        0.46296300000000007        0.2250695        0        
C2        C        0.21875        0.518519        0.2250695        0        
C3        C        0.1875        0.537037        0.2250695        0        
C4        C        0.21875        0.481481        0.2250695        0        
C1        C        0.1875        0.574075        0.2250695        0        
C2        C        0.21875        0.62963        0.2250695        0        
C3        C        0.1875        0.648148        0.2250695        0        
C4        C        0.21875        0.592592        0.2250695        0        
C1        C        0.25        0.018519        0.2250695        0        
C2        C        0.28125        0.074075        0.2250695        0        
C3        C        0.25        0.092592        0.2250695        0        
C4        C        0.28125        0.037037        0.2250695        0        
C1        C        0.25        0.12963        0.2250695        0        
C2        C        0.28125        0.185185        0.2250695        0        
C3        C        0.25        0.203703        0.2250695        0        
C4        C        0.28125        0.148148        0.2250695        0        
C1        C        0.25        0.24074099999999998        0.2250695        0        
C2        C        0.28125        0.296297        0.2250695        0        
C3        C        0.25        0.314815        0.2250695        0        
C4        C        0.28125        0.259259        0.2250695        0        
C1        C        0.25        0.351852        0.2250695        0        
C2        C        0.28125        0.407408        0.2250695        0        
C3        C        0.25        0.42592500000000005        0.2250695        0        
C4        C        0.28125        0.37037        0.2250695        0        
C1        C        0.25        0.46296300000000007        0.2250695        0        
C2        C        0.28125        0.518519        0.2250695        0        
C3        C        0.25        0.537037        0.2250695        0        
C4        C        0.28125        0.481481        0.2250695        0        
C1        C        0.25        0.574075        0.2250695        0        
C2        C        0.28125        0.62963        0.2250695        0        
C3        C        0.25        0.648148        0.2250695        0        
C4        C        0.28125        0.592592        0.2250695        0        
C1        C        0.3125        0.018519        0.2250695        0        
C2        C        0.34375        0.074075        0.2250695        0        
C3        C        0.3125        0.092592        0.2250695        0        
C4        C        0.34375        0.037037        0.2250695        0        
C1        C        0.3125        0.12963        0.2250695        0        
C2        C        0.34375        0.185185        0.2250695        0        
C3        C        0.3125        0.203703        0.2250695        0        
C4        C        0.34375        0.148148        0.2250695        0        
C1        C        0.3125        0.24074099999999998        0.2250695        0        
C2        C        0.34375        0.296297        0.2250695        0        
C3        C        0.3125        0.314815        0.2250695        0        
C4        C        0.34375        0.259259        0.2250695        0        
C1        C        0.3125        0.351852        0.2250695        0        
C2        C        0.34375        0.407408        0.2250695        0        
C3        C        0.3125        0.42592500000000005        0.2250695        0        
C4        C        0.34375        0.37037        0.2250695        0        
C1        C        0.3125        0.46296300000000007        0.2250695        0        
C2        C        0.34375        0.518519        0.2250695        0        
C3        C        0.3125        0.537037        0.2250695        0        
C4        C        0.34375        0.481481        0.2250695        0        
C1        C        0.3125        0.574075        0.2250695        0        
C2        C        0.34375        0.62963        0.2250695        0        
C3        C        0.3125        0.648148        0.2250695        0        
C4        C        0.34375        0.592592        0.2250695        0        
C1        C        0.375        0.018519        0.2250695        0        
C2        C        0.40625        0.074075        0.2250695        0        
C3        C        0.375        0.092592        0.2250695        0        
C4        C        0.40625        0.037037        0.2250695        0        
C1        C        0.375        0.12963        0.2250695        0        
C2        C        0.40625        0.185185        0.2250695        0        
C3        C        0.375        0.203703        0.2250695        0        
C4        C        0.40625        0.148148        0.2250695        0        
C1        C        0.375        0.24074099999999998        0.2250695        0        
C2        C        0.40625        0.296297        0.2250695        0        
C3        C        0.375        0.314815        0.2250695        0        
C4        C        0.40625        0.259259        0.2250695        0        
C1        C        0.375        0.351852        0.2250695        0        
C2        C        0.40625        0.407408        0.2250695        0        
C3        C        0.375        0.42592500000000005        0.2250695        0        
C4        C        0.40625        0.37037        0.2250695        0        
C1        C        0.375        0.46296300000000007        0.2250695        0        
C2        C        0.40625        0.518519        0.2250695        0        
C3        C        0.375        0.537037        0.2250695        0        
C4        C        0.40625        0.481481        0.2250695        0        
C1        C        0.375        0.574075        0.2250695        0        
C2        C        0.40625        0.62963        0.2250695        0        
C3        C        0.375        0.648148        0.2250695        0        
C4        C        0.40625        0.592592        0.2250695        0        
C1        C        0.4375        0.018519        0.2250695        0        
C2        C        0.46875        0.074075        0.2250695        0        
C3        C        0.4375        0.092592        0.2250695        0        
C4        C        0.46875        0.037037        0.2250695        0        
C1        C        0.4375        0.12963        0.2250695        0        
C2        C        0.46875        0.185185        0.2250695        0        
C3        C        0.4375        0.203703        0.2250695        0        
C4        C        0.46875        0.148148        0.2250695        0        
C1        C        0.4375        0.24074099999999998        0.2250695        0        
C2        C        0.46875        0.296297        0.2250695        0        
C3        C        0.4375        0.314815        0.2250695        0        
C4        C        0.46875        0.259259        0.2250695        0        
C1        C        0.4375        0.351852        0.2250695        0        
C2        C        0.46875        0.407408        0.2250695        0        
C3        C        0.4375        0.42592500000000005        0.2250695        0        
C4        C        0.46875        0.37037        0.2250695        0        
C1        C        0.4375        0.46296300000000007        0.2250695        0        
C2        C        0.46875        0.518519        0.2250695        0        
C3        C        0.4375        0.537037        0.2250695        0        
C4        C        0.46875        0.481481        0.2250695        0        
C1        C        0.4375        0.574075        0.2250695        0        
C2        C        0.46875        0.62963        0.2250695        0        
C3        C        0.4375        0.648148        0.2250695        0        
C4        C        0.46875        0.592592        0.2250695        0        
C1        C        0.5        0.018519        0.2250695        0        
C2        C        0.53125        0.074075        0.2250695        0        
C3        C        0.5        0.092592        0.2250695        0        
C4        C        0.53125        0.037037        0.2250695        0        
C1        C        0.5        0.12963        0.2250695        0        
C2        C        0.53125        0.185185        0.2250695        0        
C3        C        0.5        0.203703        0.2250695        0        
C4        C        0.53125        0.148148        0.2250695        0        
C1        C        0.5        0.24074099999999998        0.2250695        0        
C2        C        0.53125        0.296297        0.2250695        0        
C3        C        0.5        0.314815        0.2250695        0        
C4        C        0.53125        0.259259        0.2250695        0        
C1        C        0.5        0.351852        0.2250695        0        
C2        C        0.53125        0.407408        0.2250695        0        
C3        C        0.5        0.42592500000000005        0.2250695        0        
C4        C        0.53125        0.37037        0.2250695        0        
C1        C        0.5        0.46296300000000007        0.2250695        0        
C2        C        0.53125        0.518519        0.2250695        0        
C3        C        0.5        0.537037        0.2250695        0        
C4        C        0.53125        0.481481        0.2250695        0        
C1        C        0.5        0.574075        0.2250695        0        
C2        C        0.53125        0.62963        0.2250695        0        
C3        C        0.5        0.648148        0.2250695        0        
C4        C        0.53125        0.592592        0.2250695        0        
C1        C        0.5625        0.018519        0.2250695        0        
C2        C        0.59375        0.074075        0.2250695        0        
C3        C        0.5625        0.092592        0.2250695        0        
C4        C        0.59375        0.037037        0.2250695        0        
C1        C        0.5625        0.12963        0.2250695        0        
C2        C        0.59375        0.185185        0.2250695        0        
C3        C        0.5625        0.203703        0.2250695        0        
C4        C        0.59375        0.148148        0.2250695        0        
C1        C        0.5625        0.24074099999999998        0.2250695        0        
C2        C        0.59375        0.296297        0.2250695        0        
C3        C        0.5625        0.314815        0.2250695        0        
C4        C        0.59375        0.259259        0.2250695        0        
C1        C        0.5625        0.351852        0.2250695        0        
C2        C        0.59375        0.407408        0.2250695        0        
C3        C        0.5625        0.42592500000000005        0.2250695        0        
C4        C        0.59375        0.37037        0.2250695        0        
C1        C        0.5625        0.46296300000000007        0.2250695        0        
C2        C        0.59375        0.518519        0.2250695        0        
C3        C        0.5625        0.537037        0.2250695        0        
C4        C        0.59375        0.481481        0.2250695        0        
C1        C        0.5625        0.574075        0.2250695        0        
C2        C        0.59375        0.62963        0.2250695        0        
C3        C        0.5625        0.648148        0.2250695        0        
C4        C        0.59375        0.592592        0.2250695        0        
C1        C        0.625        0.018519        0.2250695        0        
C2        C        0.65625        0.074075        0.2250695        0        
C3        C        0.625        0.092592        0.2250695        0        
C4        C        0.65625        0.037037        0.2250695        0        
C1        C        0.625        0.12963        0.2250695        0        
C2        C        0.65625        0.185185        0.2250695        0        
C3        C        0.625        0.203703        0.2250695        0        
C4        C        0.65625        0.148148        0.2250695        0        
C1        C        0.625        0.24074099999999998        0.2250695        0        
C2        C        0.65625        0.296297        0.2250695        0        
C3        C        0.625        0.314815        0.2250695        0        
C4        C        0.65625        0.259259        0.2250695        0        
C1        C        0.625        0.351852        0.2250695        0        
C2        C        0.65625        0.407408        0.2250695        0        
C3        C        0.625        0.42592500000000005        0.2250695        0        
C4        C        0.65625        0.37037        0.2250695        0        
C1        C        0.625        0.46296300000000007        0.2250695        0        
C2        C        0.65625        0.518519        0.2250695        0        
C3        C        0.625        0.537037        0.2250695        0        
C4        C        0.65625        0.481481        0.2250695        0        
C1        C        0.625        0.574075        0.2250695        0        
C2        C        0.65625        0.62963        0.2250695        0        
C3        C        0.625        0.648148        0.2250695        0        
C4        C        0.65625        0.592592        0.2250695        0        
C1        C        0.6875        0.018519        0.2250695        0        
C2        C        0.71875        0.074075        0.2250695        0        
C3        C        0.6875        0.092592        0.2250695        0        
C4        C        0.71875        0.037037        0.2250695        0        
C1        C        0.6875        0.12963        0.2250695        0        
C2        C        0.71875        0.185185        0.2250695        0        
C3        C        0.6875        0.203703        0.2250695        0        
C4        C        0.71875        0.148148        0.2250695        0        
C1        C        0.6875        0.24074099999999998        0.2250695        0        
C2        C        0.71875        0.296297        0.2250695        0        
C3        C        0.6875        0.314815        0.2250695        0        
C4        C        0.71875        0.259259        0.2250695        0        
C1        C        0.6875        0.351852        0.2250695        0        
C2        C        0.71875        0.407408        0.2250695        0        
C3        C        0.6875        0.42592500000000005        0.2250695        0        
C4        C        0.71875        0.37037        0.2250695        0        
C1        C        0.6875        0.46296300000000007        0.2250695        0        
C2        C        0.71875        0.518519        0.2250695        0        
C3        C        0.6875        0.537037        0.2250695        0        
C4        C        0.71875        0.481481        0.2250695        0        
C1        C        0.6875        0.574075        0.2250695        0        
C2        C        0.71875        0.62963        0.2250695        0        
C3        C        0.6875        0.648148        0.2250695        0        
C4        C        0.71875        0.592592        0.2250695        0        
C1        C        0.75        0.018519        0.2250695        0        
C2        C        0.78125        0.074075        0.2250695        0        
C3        C        0.75        0.092592        0.2250695        0        
C4        C        0.78125        0.037037        0.2250695        0        
C1        C        0.75        0.12963        0.2250695        0        
C2        C        0.78125        0.185185        0.2250695        0        
C3        C        0.75        0.203703        0.2250695        0        
C4        C        0.78125        0.148148        0.2250695        0        
C1        C        0.75        0.24074099999999998        0.2250695        0        
C2        C        0.78125        0.296297        0.2250695        0        
C3        C        0.75        0.314815        0.2250695        0        
C4        C        0.78125        0.259259        0.2250695        0        
C1        C        0.75        0.351852        0.2250695        0        
C2        C        0.78125        0.407408        0.2250695        0        
C3        C        0.75        0.42592500000000005        0.2250695        0        
C4        C        0.78125        0.37037        0.2250695        0        
C1        C        0.75        0.46296300000000007        0.2250695        0        
C2        C        0.78125        0.518519        0.2250695        0        
C3        C        0.75        0.537037        0.2250695        0        
C4        C        0.78125        0.481481        0.2250695        0        
C1        C        0.75        0.574075        0.2250695        0        
C2        C        0.78125        0.62963        0.2250695        0        
C3        C        0.75        0.648148        0.2250695        0        
C4        C        0.78125        0.592592        0.2250695        0        
C1        C        0.8125        0.018519        0.2250695        0        
C2        C        0.84375        0.074075        0.2250695        0        
C3        C        0.8125        0.092592        0.2250695        0        
C4        C        0.84375        0.037037        0.2250695        0        
C1        C        0.8125        0.12963        0.2250695        0        
C2        C        0.84375        0.185185        0.2250695        0        
C3        C        0.8125        0.203703        0.2250695        0        
C4        C        0.84375        0.148148        0.2250695        0        
C1        C        0.8125        0.24074099999999998        0.2250695        0        
C2        C        0.84375        0.296297        0.2250695        0        
C3        C        0.8125        0.314815        0.2250695        0        
C4        C        0.84375        0.259259        0.2250695        0        
C1        C        0.8125        0.351852        0.2250695        0        
C2        C        0.84375        0.407408        0.2250695        0        
C3        C        0.8125        0.42592500000000005        0.2250695        0        
C4        C        0.84375        0.37037        0.2250695        0        
C1        C        0.8125        0.46296300000000007        0.2250695        0        
C2        C        0.84375        0.518519        0.2250695        0        
C3        C        0.8125        0.537037        0.2250695        0        
C4        C        0.84375        0.481481        0.2250695        0        
C1        C        0.8125        0.574075        0.2250695        0        
C2        C        0.84375        0.62963        0.2250695        0        
C3        C        0.8125        0.648148        0.2250695        0        
C4        C        0.84375        0.592592        0.2250695        0        
C1        C        0.875        0.018519        0.2250695        0        
C2        C        0.9062500000000001        0.074075        0.2250695        0        
C3        C        0.875        0.092592        0.2250695        0        
C4        C        0.9062500000000001        0.037037        0.2250695        0        
C1        C        0.875        0.12963        0.2250695        0        
C2        C        0.9062500000000001        0.185185        0.2250695        0        
C3        C        0.875        0.203703        0.2250695        0        
C4        C        0.9062500000000001        0.148148        0.2250695        0        
C1        C        0.875        0.24074099999999998        0.2250695        0        
C2        C        0.9062500000000001        0.296297        0.2250695        0        
C3        C        0.875        0.314815        0.2250695        0        
C4        C        0.9062500000000001        0.259259        0.2250695        0        
C1        C        0.875        0.351852        0.2250695        0        
C2        C        0.9062500000000001        0.407408        0.2250695        0        
C3        C        0.875        0.42592500000000005        0.2250695        0        
C4        C        0.9062500000000001        0.37037        0.2250695        0        
C1        C        0.875        0.46296300000000007        0.2250695        0        
C2        C        0.9062500000000001        0.518519        0.2250695        0        
C3        C        0.875        0.537037        0.2250695        0        
C4        C        0.9062500000000001        0.481481        0.2250695        0        
C1        C        0.875        0.574075        0.2250695        0        
C2        C        0.9062500000000001        0.62963        0.2250695        0        
C3        C        0.875        0.648148        0.2250695        0        
C4        C        0.9062500000000001        0.592592        0.2250695        0        
C1        C        0.9375        0.018519        0.2250695        0        
C2        C        0.9687500000000001        0.074075        0.2250695        0        
C3        C        0.9375        0.092592        0.2250695        0        
C4        C        0.9687500000000001        0.037037        0.2250695        0        
C1        C        0.9375        0.12963        0.2250695        0        
C2        C        0.9687500000000001        0.185185        0.2250695        0        
C3        C        0.9375        0.203703        0.2250695        0        
C4        C        0.9687500000000001        0.148148        0.2250695        0        
C1        C        0.9375        0.24074099999999998        0.2250695        0        
C2        C        0.9687500000000001        0.296297        0.2250695        0        
C3        C        0.9375        0.314815        0.2250695        0        
C4        C        0.9687500000000001        0.259259        0.2250695        0        
C1        C        0.9375        0.351852        0.2250695        0        
C2        C        0.9687500000000001        0.407408        0.2250695        0        
C3        C        0.9375        0.42592500000000005        0.2250695        0        
C4        C        0.9687500000000001        0.37037        0.2250695        0        
C1        C        0.9375        0.46296300000000007        0.2250695        0        
C2        C        0.9687500000000001        0.518519        0.2250695        0        
C3        C        0.9375        0.537037        0.2250695        0        
C4        C        0.9687500000000001        0.481481        0.2250695        0        
C1        C        0.9375        0.574075        0.2250695        0        
C2        C        0.9687500000000001        0.62963        0.2250695        0        
C3        C        0.9375        0.648148        0.2250695        0        
C4        C        0.9687500000000001        0.592592        0.2250695        0        
C1        C        0.0        0.685186        0.2250695        0        
C1        C        0.0625        0.685186        0.2250695        0        
C1        C        0.125        0.685186        0.2250695        0        
C1        C        0.1875        0.685186        0.2250695        0        
C1        C        0.25        0.685186        0.2250695        0        
C1        C        0.3125        0.685186        0.2250695        0        
C1        C        0.375        0.685186        0.2250695        0        
C1        C        0.4375        0.685186        0.2250695        0        
C1        C        0.5        0.685186        0.2250695        0        
C1        C        0.5625        0.685186        0.2250695        0        
C1        C        0.625        0.685186        0.2250695        0        
C1        C        0.6875        0.685186        0.2250695        0        
C1        C        0.75        0.685186        0.2250695        0        
C1        C        0.8125        0.685186        0.2250695        0        
C1        C        0.875        0.685186        0.2250695        0        
C1        C        0.9375        0.685186        0.2250695        0        
C2        C        0.03125        0.740741        0.2250695        0        
C2        C        0.09375        0.740741        0.2250695        0        
C2        C        0.15625        0.740741        0.2250695        0        
C2        C        0.21875        0.740741        0.2250695        0        
C2        C        0.28125        0.740741        0.2250695        0        
C2        C        0.34375        0.740741        0.2250695        0        
C2        C        0.40625        0.740741        0.2250695        0        
C2        C        0.46875        0.740741        0.2250695        0        
C2        C        0.53125        0.740741        0.2250695        0        
C2        C        0.59375        0.740741        0.2250695        0        
C2        C        0.65625        0.740741        0.2250695        0        
C2        C        0.71875        0.740741        0.2250695        0        
C2        C        0.78125        0.740741        0.2250695        0        
C2        C        0.84375        0.740741        0.2250695        0        
C2        C        0.9062500000000001        0.740741        0.2250695        0        
C2        C        0.9687500000000001        0.740741        0.2250695        0        
C3        C        0.0        0.759259        0.2250695        0        
C3        C        0.0625        0.759259        0.2250695        0        
C3        C        0.125        0.759259        0.2250695        0        
C3        C        0.1875        0.759259        0.2250695        0        
C3        C        0.25        0.759259        0.2250695        0        
C3        C        0.3125        0.759259        0.2250695        0        
C3        C        0.375        0.759259        0.2250695        0        
C3        C        0.4375        0.759259        0.2250695        0        
C3        C        0.5        0.759259        0.2250695        0        
C3        C        0.5625        0.759259        0.2250695        0        
C3        C        0.625        0.759259        0.2250695        0        
C3        C        0.6875        0.759259        0.2250695        0        
C3        C        0.75        0.759259        0.2250695        0        
C3        C        0.8125        0.759259        0.2250695        0        
C3        C        0.875        0.759259        0.2250695        0        
C3        C        0.9375        0.759259        0.2250695        0        
C4        C        0.03125        0.703703        0.2250695        0        
C4        C        0.09375        0.703703        0.2250695        0        
C4        C        0.15625        0.703703        0.2250695        0        
C4        C        0.21875        0.703703        0.2250695        0        
C4        C        0.28125        0.703703        0.2250695        0        
C4        C        0.34375        0.703703        0.2250695        0        
C4        C        0.40625        0.703703        0.2250695        0        
C4        C        0.46875        0.703703        0.2250695        0        
C4        C        0.53125        0.703703        0.2250695        0        
C4        C        0.59375        0.703703        0.2250695        0        
C4        C        0.65625        0.703703        0.2250695        0        
C4        C        0.71875        0.703703        0.2250695        0        
C4        C        0.78125        0.703703        0.2250695        0        
C4        C        0.84375        0.703703        0.2250695        0        
C4        C        0.9062500000000001        0.703703        0.2250695        0        
C4        C        0.9687500000000001        0.703703        0.2250695        0        
C1        C        0.0        0.796297        0.2250695        0        
C1        C        0.0625        0.796297        0.2250695        0        
C1        C        0.125        0.796297        0.2250695        0        
C1        C        0.1875        0.796297        0.2250695        0        
C1        C        0.25        0.796297        0.2250695        0        
C1        C        0.3125        0.796297        0.2250695        0        
C1        C        0.375        0.796297        0.2250695        0        
C1        C        0.4375        0.796297        0.2250695        0        
C1        C        0.5        0.796297        0.2250695        0        
C1        C        0.5625        0.796297        0.2250695        0        
C1        C        0.625        0.796297        0.2250695        0        
C1        C        0.6875        0.796297        0.2250695        0        
C1        C        0.75        0.796297        0.2250695        0        
C1        C        0.8125        0.796297        0.2250695        0        
C1        C        0.875        0.796297        0.2250695        0        
C1        C        0.9375        0.796297        0.2250695        0        
C2        C        0.03125        0.851852        0.2250695        0        
C2        C        0.09375        0.851852        0.2250695        0        
C2        C        0.15625        0.851852        0.2250695        0        
C2        C        0.21875        0.851852        0.2250695        0        
C2        C        0.28125        0.851852        0.2250695        0        
C2        C        0.34375        0.851852        0.2250695        0        
C2        C        0.40625        0.851852        0.2250695        0        
C2        C        0.46875        0.851852        0.2250695        0        
C2        C        0.53125        0.851852        0.2250695        0        
C2        C        0.59375        0.851852        0.2250695        0        
C2        C        0.65625        0.851852        0.2250695        0        
C2        C        0.71875        0.851852        0.2250695        0        
C2        C        0.78125        0.851852        0.2250695        0        
C2        C        0.84375        0.851852        0.2250695        0        
C2        C        0.9062500000000001        0.851852        0.2250695        0        
C2        C        0.9687500000000001        0.851852        0.2250695        0        
C3        C        0.0        0.87037        0.2250695        0        
C3        C        0.0625        0.87037        0.2250695        0        
C3        C        0.125        0.87037        0.2250695        0        
C3        C        0.1875        0.87037        0.2250695        0        
C3        C        0.25        0.87037        0.2250695        0        
C3        C        0.3125        0.87037        0.2250695        0        
C3        C        0.375        0.87037        0.2250695        0        
C3        C        0.4375        0.87037        0.2250695        0        
C3        C        0.5        0.87037        0.2250695        0        
C3        C        0.5625        0.87037        0.2250695        0        
C3        C        0.625        0.87037        0.2250695        0        
C3        C        0.6875        0.87037        0.2250695        0        
C3        C        0.75        0.87037        0.2250695        0        
C3        C        0.8125        0.87037        0.2250695        0        
C3        C        0.875        0.87037        0.2250695        0        
C3        C        0.9375        0.87037        0.2250695        0        
C4        C        0.03125        0.814814        0.2250695        0        
C4        C        0.09375        0.814814        0.2250695        0        
C4        C        0.15625        0.814814        0.2250695        0        
C4        C        0.21875        0.814814        0.2250695        0        
C4        C        0.28125        0.814814        0.2250695        0        
C4        C        0.34375        0.814814        0.2250695        0        
C4        C        0.40625        0.814814        0.2250695        0        
C4        C        0.46875        0.814814        0.2250695        0        
C4        C        0.53125        0.814814        0.2250695        0        
C4        C        0.59375        0.814814        0.2250695        0        
C4        C        0.65625        0.814814        0.2250695        0        
C4        C        0.71875        0.814814        0.2250695        0        
C4        C        0.78125        0.814814        0.2250695        0        
C4        C        0.84375        0.814814        0.2250695        0        
C4        C        0.9062500000000001        0.814814        0.2250695        0        
C4        C        0.9687500000000001        0.814814        0.2250695        0        
C1        C        0.0        0.907408        0.2250695        0        
C1        C        0.0625        0.907408        0.2250695        0        
C1        C        0.125        0.907408        0.2250695        0        
C1        C        0.1875        0.907408        0.2250695        0        
C1        C        0.25        0.907408        0.2250695        0        
C1        C        0.3125        0.907408        0.2250695        0        
C1        C        0.375        0.907408        0.2250695        0        
C1        C        0.4375        0.907408        0.2250695        0        
C1        C        0.5        0.907408        0.2250695        0        
C1        C        0.5625        0.907408        0.2250695        0        
C1        C        0.625        0.907408        0.2250695        0        
C1        C        0.6875        0.907408        0.2250695        0        
C1        C        0.75        0.907408        0.2250695        0        
C1        C        0.8125        0.907408        0.2250695        0        
C1        C        0.875        0.907408        0.2250695        0        
C1        C        0.9375        0.907408        0.2250695        0        
C2        C        0.03125        0.962963        0.2250695        0        
C2        C        0.09375        0.962963        0.2250695        0        
C2        C        0.15625        0.962963        0.2250695        0        
C2        C        0.21875        0.962963        0.2250695        0        
C2        C        0.28125        0.962963        0.2250695        0        
C2        C        0.34375        0.962963        0.2250695        0        
C2        C        0.40625        0.962963        0.2250695        0        
C2        C        0.46875        0.962963        0.2250695        0        
C2        C        0.53125        0.962963        0.2250695        0        
C2        C        0.59375        0.962963        0.2250695        0        
C2        C        0.65625        0.962963        0.2250695        0        
C2        C        0.71875        0.962963        0.2250695        0        
C2        C        0.78125        0.962963        0.2250695        0        
C2        C        0.84375        0.962963        0.2250695        0        
C2        C        0.9062500000000001        0.962963        0.2250695        0        
C2        C        0.9687500000000001        0.962963        0.2250695        0        
C3        C        0.0        0.9814809999999999        0.2250695        0        
C3        C        0.0625        0.9814809999999999        0.2250695        0        
C3        C        0.125        0.9814809999999999        0.2250695        0        
C3        C        0.1875        0.9814809999999999        0.2250695        0        
C3        C        0.25        0.9814809999999999        0.2250695        0        
C3        C        0.3125        0.9814809999999999        0.2250695        0        
C3        C        0.375        0.9814809999999999        0.2250695        0        
C3        C        0.4375        0.9814809999999999        0.2250695        0        
C3        C        0.5        0.9814809999999999        0.2250695        0        
C3        C        0.5625        0.9814809999999999        0.2250695        0        
C3        C        0.625        0.9814809999999999        0.2250695        0        
C3        C        0.6875        0.9814809999999999        0.2250695        0        
C3        C        0.75        0.9814809999999999        0.2250695        0        
C3        C        0.8125        0.9814809999999999        0.2250695        0        
C3        C        0.875        0.9814809999999999        0.2250695        0        
C3        C        0.9375        0.9814809999999999        0.2250695        0        
C4        C        0.03125        0.925925        0.2250695        0        
C4        C        0.09375        0.925925        0.2250695        0        
C4        C        0.15625        0.925925        0.2250695        0        
C4        C        0.21875        0.925925        0.2250695        0        
C4        C        0.28125        0.925925        0.2250695        0        
C4        C        0.34375        0.925925        0.2250695        0        
C4        C        0.40625        0.925925        0.2250695        0        
C4        C        0.46875        0.925925        0.2250695        0        
C4        C        0.53125        0.925925        0.2250695        0        
C4        C        0.59375        0.925925        0.2250695        0        
C4        C        0.65625        0.925925        0.2250695        0        
C4        C        0.71875        0.925925        0.2250695        0        
C4        C        0.78125        0.925925        0.2250695        0        
C4        C        0.84375        0.925925        0.2250695        0        
C4        C        0.9062500000000001        0.925925        0.2250695        0        
C4        C        0.9687500000000001        0.925925        0.2250695        0        
C1        C        0.0        0.018519        0.35800550000000003        0        
C2        C        0.03125        0.074075        0.35800550000000003        0        
C3        C        0.0        0.092592        0.35800550000000003        0        
C4        C        0.03125        0.037037        0.35800550000000003        0        
C1        C        0.0        0.12963        0.35800550000000003        0        
C2        C        0.03125        0.185185        0.35800550000000003        0        
C3        C        0.0        0.203703        0.35800550000000003        0        
C4        C        0.03125        0.148148        0.35800550000000003        0        
C1        C        0.0        0.24074099999999998        0.35800550000000003        0        
C2        C        0.03125        0.296297        0.35800550000000003        0        
C3        C        0.0        0.314815        0.35800550000000003        0        
C4        C        0.03125        0.259259        0.35800550000000003        0        
C1        C        0.0        0.351852        0.35800550000000003        0        
C2        C        0.03125        0.407408        0.35800550000000003        0        
C3        C        0.0        0.42592500000000005        0.35800550000000003        0        
C4        C        0.03125        0.37037        0.35800550000000003        0        
C1        C        0.0        0.46296300000000007        0.35800550000000003        0        
C2        C        0.03125        0.518519        0.35800550000000003        0        
C3        C        0.0        0.537037        0.35800550000000003        0        
C4        C        0.03125        0.481481        0.35800550000000003        0        
C1        C        0.0        0.574075        0.35800550000000003        0        
C2        C        0.03125        0.62963        0.35800550000000003        0        
C3        C        0.0        0.648148        0.35800550000000003        0        
C4        C        0.03125        0.592592        0.35800550000000003        0        
C1        C        0.0625        0.018519        0.35800550000000003        0        
C2        C        0.09375        0.074075        0.35800550000000003        0        
C3        C        0.0625        0.092592        0.35800550000000003        0        
C4        C        0.09375        0.037037        0.35800550000000003        0        
C1        C        0.0625        0.12963        0.35800550000000003        0        
C2        C        0.09375        0.185185        0.35800550000000003        0        
C3        C        0.0625        0.203703        0.35800550000000003        0        
C4        C        0.09375        0.148148        0.35800550000000003        0        
C1        C        0.0625        0.24074099999999998        0.35800550000000003        0        
C2        C        0.09375        0.296297        0.35800550000000003        0        
C3        C        0.0625        0.314815        0.35800550000000003        0        
C4        C        0.09375        0.259259        0.35800550000000003        0        
C1        C        0.0625        0.351852        0.35800550000000003        0        
C2        C        0.09375        0.407408        0.35800550000000003        0        
C3        C        0.0625        0.42592500000000005        0.35800550000000003        0        
C4        C        0.09375        0.37037        0.35800550000000003        0        
C1        C        0.0625        0.46296300000000007        0.35800550000000003        0        
C2        C        0.09375        0.518519        0.35800550000000003        0        
C3        C        0.0625        0.537037        0.35800550000000003        0        
C4        C        0.09375        0.481481        0.35800550000000003        0        
C1        C        0.0625        0.574075        0.35800550000000003        0        
C2        C        0.09375        0.62963        0.35800550000000003        0        
C3        C        0.0625        0.648148        0.35800550000000003        0        
C4        C        0.09375        0.592592        0.35800550000000003        0        
C1        C        0.125        0.018519        0.35800550000000003        0        
C2        C        0.15625        0.074075        0.35800550000000003        0        
C3        C        0.125        0.092592        0.35800550000000003        0        
C4        C        0.15625        0.037037        0.35800550000000003        0        
C1        C        0.125        0.12963        0.35800550000000003        0        
C2        C        0.15625        0.185185        0.35800550000000003        0        
C3        C        0.125        0.203703        0.35800550000000003        0        
C4        C        0.15625        0.148148        0.35800550000000003        0        
C1        C        0.125        0.24074099999999998        0.35800550000000003        0        
C2        C        0.15625        0.296297        0.35800550000000003        0        
C3        C        0.125        0.314815        0.35800550000000003        0        
C4        C        0.15625        0.259259        0.35800550000000003        0        
C1        C        0.125        0.351852        0.35800550000000003        0        
C2        C        0.15625        0.407408        0.35800550000000003        0        
C3        C        0.125        0.42592500000000005        0.35800550000000003        0        
C4        C        0.15625        0.37037        0.35800550000000003        0        
C1        C        0.125        0.46296300000000007        0.35800550000000003        0        
C2        C        0.15625        0.518519        0.35800550000000003        0        
C3        C        0.125        0.537037        0.35800550000000003        0        
C4        C        0.15625        0.481481        0.35800550000000003        0        
C1        C        0.125        0.574075        0.35800550000000003        0        
C2        C        0.15625        0.62963        0.35800550000000003        0        
C3        C        0.125        0.648148        0.35800550000000003        0        
C4        C        0.15625        0.592592        0.35800550000000003        0        
C1        C        0.1875        0.018519        0.35800550000000003        0        
C2        C        0.21875        0.074075        0.35800550000000003        0        
C3        C        0.1875        0.092592        0.35800550000000003        0        
C4        C        0.21875        0.037037        0.35800550000000003        0        
C1        C        0.1875        0.12963        0.35800550000000003        0        
C2        C        0.21875        0.185185        0.35800550000000003        0        
C3        C        0.1875        0.203703        0.35800550000000003        0        
C4        C        0.21875        0.148148        0.35800550000000003        0        
C1        C        0.1875        0.24074099999999998        0.35800550000000003        0        
C2        C        0.21875        0.296297        0.35800550000000003        0        
C3        C        0.1875        0.314815        0.35800550000000003        0        
C4        C        0.21875        0.259259        0.35800550000000003        0        
C1        C        0.1875        0.351852        0.35800550000000003        0        
C2        C        0.21875        0.407408        0.35800550000000003        0        
C3        C        0.1875        0.42592500000000005        0.35800550000000003        0        
C4        C        0.21875        0.37037        0.35800550000000003        0        
C1        C        0.1875        0.46296300000000007        0.35800550000000003        0        
C2        C        0.21875        0.518519        0.35800550000000003        0        
C3        C        0.1875        0.537037        0.35800550000000003        0        
C4        C        0.21875        0.481481        0.35800550000000003        0        
C1        C        0.1875        0.574075        0.35800550000000003        0        
C2        C        0.21875        0.62963        0.35800550000000003        0        
C3        C        0.1875        0.648148        0.35800550000000003        0        
C4        C        0.21875        0.592592        0.35800550000000003        0        
C1        C        0.25        0.018519        0.35800550000000003        0        
C2        C        0.28125        0.074075        0.35800550000000003        0        
C3        C        0.25        0.092592        0.35800550000000003        0        
C4        C        0.28125        0.037037        0.35800550000000003        0        
C1        C        0.25        0.12963        0.35800550000000003        0        
C2        C        0.28125        0.185185        0.35800550000000003        0        
C3        C        0.25        0.203703        0.35800550000000003        0        
C4        C        0.28125        0.148148        0.35800550000000003        0        
C1        C        0.25        0.24074099999999998        0.35800550000000003        0        
C2        C        0.28125        0.296297        0.35800550000000003        0        
C3        C        0.25        0.314815        0.35800550000000003        0        
C4        C        0.28125        0.259259        0.35800550000000003        0        
C1        C        0.25        0.351852        0.35800550000000003        0        
C2        C        0.28125        0.407408        0.35800550000000003        0        
C3        C        0.25        0.42592500000000005        0.35800550000000003        0        
C4        C        0.28125        0.37037        0.35800550000000003        0        
C1        C        0.25        0.46296300000000007        0.35800550000000003        0        
C2        C        0.28125        0.518519        0.35800550000000003        0        
C3        C        0.25        0.537037        0.35800550000000003        0        
C4        C        0.28125        0.481481        0.35800550000000003        0        
C1        C        0.25        0.574075        0.35800550000000003        0        
C2        C        0.28125        0.62963        0.35800550000000003        0        
C3        C        0.25        0.648148        0.35800550000000003        0        
C4        C        0.28125        0.592592        0.35800550000000003        0        
C1        C        0.3125        0.018519        0.35800550000000003        0        
C2        C        0.34375        0.074075        0.35800550000000003        0        
C3        C        0.3125        0.092592        0.35800550000000003        0        
C4        C        0.34375        0.037037        0.35800550000000003        0        
C1        C        0.3125        0.12963        0.35800550000000003        0        
C2        C        0.34375        0.185185        0.35800550000000003        0        
C3        C        0.3125        0.203703        0.35800550000000003        0        
C4        C        0.34375        0.148148        0.35800550000000003        0        
C1        C        0.3125        0.24074099999999998        0.35800550000000003        0        
C2        C        0.34375        0.296297        0.35800550000000003        0        
C3        C        0.3125        0.314815        0.35800550000000003        0        
C4        C        0.34375        0.259259        0.35800550000000003        0        
C1        C        0.3125        0.351852        0.35800550000000003        0        
C2        C        0.34375        0.407408        0.35800550000000003        0        
C3        C        0.3125        0.42592500000000005        0.35800550000000003        0        
C4        C        0.34375        0.37037        0.35800550000000003        0        
C1        C        0.3125        0.46296300000000007        0.35800550000000003        0        
C2        C        0.34375        0.518519        0.35800550000000003        0        
C3        C        0.3125        0.537037        0.35800550000000003        0        
C4        C        0.34375        0.481481        0.35800550000000003        0        
C1        C        0.3125        0.574075        0.35800550000000003        0        
C2        C        0.34375        0.62963        0.35800550000000003        0        
C3        C        0.3125        0.648148        0.35800550000000003        0        
C4        C        0.34375        0.592592        0.35800550000000003        0        
C1        C        0.375        0.018519        0.35800550000000003        0        
C2        C        0.40625        0.074075        0.35800550000000003        0        
C3        C        0.375        0.092592        0.35800550000000003        0        
C4        C        0.40625        0.037037        0.35800550000000003        0        
C1        C        0.375        0.12963        0.35800550000000003        0        
C2        C        0.40625        0.185185        0.35800550000000003        0        
C3        C        0.375        0.203703        0.35800550000000003        0        
C4        C        0.40625        0.148148        0.35800550000000003        0        
C1        C        0.375        0.24074099999999998        0.35800550000000003        0        
C2        C        0.40625        0.296297        0.35800550000000003        0        
C3        C        0.375        0.314815        0.35800550000000003        0        
C4        C        0.40625        0.259259        0.35800550000000003        0        
C1        C        0.375        0.351852        0.35800550000000003        0        
C2        C        0.40625        0.407408        0.35800550000000003        0        
C3        C        0.375        0.42592500000000005        0.35800550000000003        0        
C4        C        0.40625        0.37037        0.35800550000000003        0        
C1        C        0.375        0.46296300000000007        0.35800550000000003        0        
C2        C        0.40625        0.518519        0.35800550000000003        0        
C3        C        0.375        0.537037        0.35800550000000003        0        
C4        C        0.40625        0.481481        0.35800550000000003        0        
C1        C        0.375        0.574075        0.35800550000000003        0        
C2        C        0.40625        0.62963        0.35800550000000003        0        
C3        C        0.375        0.648148        0.35800550000000003        0        
C4        C        0.40625        0.592592        0.35800550000000003        0        
C1        C        0.4375        0.018519        0.35800550000000003        0        
C2        C        0.46875        0.074075        0.35800550000000003        0        
C3        C        0.4375        0.092592        0.35800550000000003        0        
C4        C        0.46875        0.037037        0.35800550000000003        0        
C1        C        0.4375        0.12963        0.35800550000000003        0        
C2        C        0.46875        0.185185        0.35800550000000003        0        
C3        C        0.4375        0.203703        0.35800550000000003        0        
C4        C        0.46875        0.148148        0.35800550000000003        0        
C1        C        0.4375        0.24074099999999998        0.35800550000000003        0        
C2        C        0.46875        0.296297        0.35800550000000003        0        
C3        C        0.4375        0.314815        0.35800550000000003        0        
C4        C        0.46875        0.259259        0.35800550000000003        0        
C1        C        0.4375        0.351852        0.35800550000000003        0        
C2        C        0.46875        0.407408        0.35800550000000003        0        
C3        C        0.4375        0.42592500000000005        0.35800550000000003        0        
C4        C        0.46875        0.37037        0.35800550000000003        0        
C1        C        0.4375        0.46296300000000007        0.35800550000000003        0        
C2        C        0.46875        0.518519        0.35800550000000003        0        
C3        C        0.4375        0.537037        0.35800550000000003        0        
C4        C        0.46875        0.481481        0.35800550000000003        0        
C1        C        0.4375        0.574075        0.35800550000000003        0        
C2        C        0.46875        0.62963        0.35800550000000003        0        
C3        C        0.4375        0.648148        0.35800550000000003        0        
C4        C        0.46875        0.592592        0.35800550000000003        0        
C1        C        0.5        0.018519        0.35800550000000003        0        
C2        C        0.53125        0.074075        0.35800550000000003        0        
C3        C        0.5        0.092592        0.35800550000000003        0        
C4        C        0.53125        0.037037        0.35800550000000003        0        
C1        C        0.5        0.12963        0.35800550000000003        0        
C2        C        0.53125        0.185185        0.35800550000000003        0        
C3        C        0.5        0.203703        0.35800550000000003        0        
C4        C        0.53125        0.148148        0.35800550000000003        0        
C1        C        0.5        0.24074099999999998        0.35800550000000003        0        
C2        C        0.53125        0.296297        0.35800550000000003        0        
C3        C        0.5        0.314815        0.35800550000000003        0        
C4        C        0.53125        0.259259        0.35800550000000003        0        
C1        C        0.5        0.351852        0.35800550000000003        0        
C2        C        0.53125        0.407408        0.35800550000000003        0        
C3        C        0.5        0.42592500000000005        0.35800550000000003        0        
C4        C        0.53125        0.37037        0.35800550000000003        0        
C1        C        0.5        0.46296300000000007        0.35800550000000003        0        
C2        C        0.53125        0.518519        0.35800550000000003        0        
C3        C        0.5        0.537037        0.35800550000000003        0        
C4        C        0.53125        0.481481        0.35800550000000003        0        
C1        C        0.5        0.574075        0.35800550000000003        0        
C2        C        0.53125        0.62963        0.35800550000000003        0        
C3        C        0.5        0.648148        0.35800550000000003        0        
C4        C        0.53125        0.592592        0.35800550000000003        0        
C1        C        0.5625        0.018519        0.35800550000000003        0        
C2        C        0.59375        0.074075        0.35800550000000003        0        
C3        C        0.5625        0.092592        0.35800550000000003        0        
C4        C        0.59375        0.037037        0.35800550000000003        0        
C1        C        0.5625        0.12963        0.35800550000000003        0        
C2        C        0.59375        0.185185        0.35800550000000003        0        
C3        C        0.5625        0.203703        0.35800550000000003        0        
C4        C        0.59375        0.148148        0.35800550000000003        0        
C1        C        0.5625        0.24074099999999998        0.35800550000000003        0        
C2        C        0.59375        0.296297        0.35800550000000003        0        
C3        C        0.5625        0.314815        0.35800550000000003        0        
C4        C        0.59375        0.259259        0.35800550000000003        0        
C1        C        0.5625        0.351852        0.35800550000000003        0        
C2        C        0.59375        0.407408        0.35800550000000003        0        
C3        C        0.5625        0.42592500000000005        0.35800550000000003        0        
C4        C        0.59375        0.37037        0.35800550000000003        0        
C1        C        0.5625        0.46296300000000007        0.35800550000000003        0        
C2        C        0.59375        0.518519        0.35800550000000003        0        
C3        C        0.5625        0.537037        0.35800550000000003        0        
C4        C        0.59375        0.481481        0.35800550000000003        0        
C1        C        0.5625        0.574075        0.35800550000000003        0        
C2        C        0.59375        0.62963        0.35800550000000003        0        
C3        C        0.5625        0.648148        0.35800550000000003        0        
C4        C        0.59375        0.592592        0.35800550000000003        0        
C1        C        0.625        0.018519        0.35800550000000003        0        
C2        C        0.65625        0.074075        0.35800550000000003        0        
C3        C        0.625        0.092592        0.35800550000000003        0        
C4        C        0.65625        0.037037        0.35800550000000003        0        
C1        C        0.625        0.12963        0.35800550000000003        0        
C2        C        0.65625        0.185185        0.35800550000000003        0        
C3        C        0.625        0.203703        0.35800550000000003        0        
C4        C        0.65625        0.148148        0.35800550000000003        0        
C1        C        0.625        0.24074099999999998        0.35800550000000003        0        
C2        C        0.65625        0.296297        0.35800550000000003        0        
C3        C        0.625        0.314815        0.35800550000000003        0        
C4        C        0.65625        0.259259        0.35800550000000003        0        
C1        C        0.625        0.351852        0.35800550000000003        0        
C2        C        0.65625        0.407408        0.35800550000000003        0        
C3        C        0.625        0.42592500000000005        0.35800550000000003        0        
C4        C        0.65625        0.37037        0.35800550000000003        0        
C1        C        0.625        0.46296300000000007        0.35800550000000003        0        
C2        C        0.65625        0.518519        0.35800550000000003        0        
C3        C        0.625        0.537037        0.35800550000000003        0        
C4        C        0.65625        0.481481        0.35800550000000003        0        
C1        C        0.625        0.574075        0.35800550000000003        0        
C2        C        0.65625        0.62963        0.35800550000000003        0        
C3        C        0.625        0.648148        0.35800550000000003        0        
C4        C        0.65625        0.592592        0.35800550000000003        0        
C1        C        0.6875        0.018519        0.35800550000000003        0        
C2        C        0.71875        0.074075        0.35800550000000003        0        
C3        C        0.6875        0.092592        0.35800550000000003        0        
C4        C        0.71875        0.037037        0.35800550000000003        0        
C1        C        0.6875        0.12963        0.35800550000000003        0        
C2        C        0.71875        0.185185        0.35800550000000003        0        
C3        C        0.6875        0.203703        0.35800550000000003        0        
C4        C        0.71875        0.148148        0.35800550000000003        0        
C1        C        0.6875        0.24074099999999998        0.35800550000000003        0        
C2        C        0.71875        0.296297        0.35800550000000003        0        
C3        C        0.6875        0.314815        0.35800550000000003        0        
C4        C        0.71875        0.259259        0.35800550000000003        0        
C1        C        0.6875        0.351852        0.35800550000000003        0        
C2        C        0.71875        0.407408        0.35800550000000003        0        
C3        C        0.6875        0.42592500000000005        0.35800550000000003        0        
C4        C        0.71875        0.37037        0.35800550000000003        0        
C1        C        0.6875        0.46296300000000007        0.35800550000000003        0        
C2        C        0.71875        0.518519        0.35800550000000003        0        
C3        C        0.6875        0.537037        0.35800550000000003        0        
C4        C        0.71875        0.481481        0.35800550000000003        0        
C1        C        0.6875        0.574075        0.35800550000000003        0        
C2        C        0.71875        0.62963        0.35800550000000003        0        
C3        C        0.6875        0.648148        0.35800550000000003        0        
C4        C        0.71875        0.592592        0.35800550000000003        0        
C1        C        0.75        0.018519        0.35800550000000003        0        
C2        C        0.78125        0.074075        0.35800550000000003        0        
C3        C        0.75        0.092592        0.35800550000000003        0        
C4        C        0.78125        0.037037        0.35800550000000003        0        
C1        C        0.75        0.12963        0.35800550000000003        0        
C2        C        0.78125        0.185185        0.35800550000000003        0        
C3        C        0.75        0.203703        0.35800550000000003        0        
C4        C        0.78125        0.148148        0.35800550000000003        0        
C1        C        0.75        0.24074099999999998        0.35800550000000003        0        
C2        C        0.78125        0.296297        0.35800550000000003        0        
C3        C        0.75        0.314815        0.35800550000000003        0        
C4        C        0.78125        0.259259        0.35800550000000003        0        
C1        C        0.75        0.351852        0.35800550000000003        0        
C2        C        0.78125        0.407408        0.35800550000000003        0        
C3        C        0.75        0.42592500000000005        0.35800550000000003        0        
C4        C        0.78125        0.37037        0.35800550000000003        0        
C1        C        0.75        0.46296300000000007        0.35800550000000003        0        
C2        C        0.78125        0.518519        0.35800550000000003        0        
C3        C        0.75        0.537037        0.35800550000000003        0        
C4        C        0.78125        0.481481        0.35800550000000003        0        
C1        C        0.75        0.574075        0.35800550000000003        0        
C2        C        0.78125        0.62963        0.35800550000000003        0        
C3        C        0.75        0.648148        0.35800550000000003        0        
C4        C        0.78125        0.592592        0.35800550000000003        0        
C1        C        0.8125        0.018519        0.35800550000000003        0        
C2        C        0.84375        0.074075        0.35800550000000003        0        
C3        C        0.8125        0.092592        0.35800550000000003        0        
C4        C        0.84375        0.037037        0.35800550000000003        0        
C1        C        0.8125        0.12963        0.35800550000000003        0        
C2        C        0.84375        0.185185        0.35800550000000003        0        
C3        C        0.8125        0.203703        0.35800550000000003        0        
C4        C        0.84375        0.148148        0.35800550000000003        0        
C1        C        0.8125        0.24074099999999998        0.35800550000000003        0        
C2        C        0.84375        0.296297        0.35800550000000003        0        
C3        C        0.8125        0.314815        0.35800550000000003        0        
C4        C        0.84375        0.259259        0.35800550000000003        0        
C1        C        0.8125        0.351852        0.35800550000000003        0        
C2        C        0.84375        0.407408        0.35800550000000003        0        
C3        C        0.8125        0.42592500000000005        0.35800550000000003        0        
C4        C        0.84375        0.37037        0.35800550000000003        0        
C1        C        0.8125        0.46296300000000007        0.35800550000000003        0        
C2        C        0.84375        0.518519        0.35800550000000003        0        
C3        C        0.8125        0.537037        0.35800550000000003        0        
C4        C        0.84375        0.481481        0.35800550000000003        0        
C1        C        0.8125        0.574075        0.35800550000000003        0        
C2        C        0.84375        0.62963        0.35800550000000003        0        
C3        C        0.8125        0.648148        0.35800550000000003        0        
C4        C        0.84375        0.592592        0.35800550000000003        0        
C1        C        0.875        0.018519        0.35800550000000003        0        
C2        C        0.9062500000000001        0.074075        0.35800550000000003        0        
C3        C        0.875        0.092592        0.35800550000000003        0        
C4        C        0.9062500000000001        0.037037        0.35800550000000003        0        
C1        C        0.875        0.12963        0.35800550000000003        0        
C2        C        0.9062500000000001        0.185185        0.35800550000000003        0        
C3        C        0.875        0.203703        0.35800550000000003        0        
C4        C        0.9062500000000001        0.148148        0.35800550000000003        0        
C1        C        0.875        0.24074099999999998        0.35800550000000003        0        
C2        C        0.9062500000000001        0.296297        0.35800550000000003        0        
C3        C        0.875        0.314815        0.35800550000000003        0        
C4        C        0.9062500000000001        0.259259        0.35800550000000003        0        
C1        C        0.875        0.351852        0.35800550000000003        0        
C2        C        0.9062500000000001        0.407408        0.35800550000000003        0        
C3        C        0.875        0.42592500000000005        0.35800550000000003        0        
C4        C        0.9062500000000001        0.37037        0.35800550000000003        0        
C1        C        0.875        0.46296300000000007        0.35800550000000003        0        
C2        C        0.9062500000000001        0.518519        0.35800550000000003        0        
C3        C        0.875        0.537037        0.35800550000000003        0        
C4        C        0.9062500000000001        0.481481        0.35800550000000003        0        
C1        C        0.875        0.574075        0.35800550000000003        0        
C2        C        0.9062500000000001        0.62963        0.35800550000000003        0        
C3        C        0.875        0.648148        0.35800550000000003        0        
C4        C        0.9062500000000001        0.592592        0.35800550000000003        0        
C1        C        0.9375        0.018519        0.35800550000000003        0        
C2        C        0.9687500000000001        0.074075        0.35800550000000003        0        
C3        C        0.9375        0.092592        0.35800550000000003        0        
C4        C        0.9687500000000001        0.037037        0.35800550000000003        0        
C1        C        0.9375        0.12963        0.35800550000000003        0        
C2        C        0.9687500000000001        0.185185        0.35800550000000003        0        
C3        C        0.9375        0.203703        0.35800550000000003        0        
C4        C        0.9687500000000001        0.148148        0.35800550000000003        0        
C1        C        0.9375        0.24074099999999998        0.35800550000000003        0        
C2        C        0.9687500000000001        0.296297        0.35800550000000003        0        
C3        C        0.9375        0.314815        0.35800550000000003        0        
C4        C        0.9687500000000001        0.259259        0.35800550000000003        0        
C1        C        0.9375        0.351852        0.35800550000000003        0        
C2        C        0.9687500000000001        0.407408        0.35800550000000003        0        
C3        C        0.9375        0.42592500000000005        0.35800550000000003        0        
C4        C        0.9687500000000001        0.37037        0.35800550000000003        0        
C1        C        0.9375        0.46296300000000007        0.35800550000000003        0        
C2        C        0.9687500000000001        0.518519        0.35800550000000003        0        
C3        C        0.9375        0.537037        0.35800550000000003        0        
C4        C        0.9687500000000001        0.481481        0.35800550000000003        0        
C1        C        0.9375        0.574075        0.35800550000000003        0        
C2        C        0.9687500000000001        0.62963        0.35800550000000003        0        
C3        C        0.9375        0.648148        0.35800550000000003        0        
C4        C        0.9687500000000001        0.592592        0.35800550000000003        0        
C1        C        0.0        0.685186        0.35800550000000003        0        
C1        C        0.0625        0.685186        0.35800550000000003        0        
C1        C        0.125        0.685186        0.35800550000000003        0        
C1        C        0.1875        0.685186        0.35800550000000003        0        
C1        C        0.25        0.685186        0.35800550000000003        0        
C1        C        0.3125        0.685186        0.35800550000000003        0        
C1        C        0.375        0.685186        0.35800550000000003        0        
C1        C        0.4375        0.685186        0.35800550000000003        0        
C1        C        0.5        0.685186        0.35800550000000003        0        
C1        C        0.5625        0.685186        0.35800550000000003        0        
C1        C        0.625        0.685186        0.35800550000000003        0        
C1        C        0.6875        0.685186        0.35800550000000003        0        
C1        C        0.75        0.685186        0.35800550000000003        0        
C1        C        0.8125        0.685186        0.35800550000000003        0        
C1        C        0.875        0.685186        0.35800550000000003        0        
C1        C        0.9375        0.685186        0.35800550000000003        0        
C2        C        0.03125        0.740741        0.35800550000000003        0        
C2        C        0.09375        0.740741        0.35800550000000003        0        
C2        C        0.15625        0.740741        0.35800550000000003        0        
C2        C        0.21875        0.740741        0.35800550000000003        0        
C2        C        0.28125        0.740741        0.35800550000000003        0        
C2        C        0.34375        0.740741        0.35800550000000003        0        
C2        C        0.40625        0.740741        0.35800550000000003        0        
C2        C        0.46875        0.740741        0.35800550000000003        0        
C2        C        0.53125        0.740741        0.35800550000000003        0        
C2        C        0.59375        0.740741        0.35800550000000003        0        
C2        C        0.65625        0.740741        0.35800550000000003        0        
C2        C        0.71875        0.740741        0.35800550000000003        0        
C2        C        0.78125        0.740741        0.35800550000000003        0        
C2        C        0.84375        0.740741        0.35800550000000003        0        
C2        C        0.9062500000000001        0.740741        0.35800550000000003        0        
C2        C        0.9687500000000001        0.740741        0.35800550000000003        0        
C3        C        0.0        0.759259        0.35800550000000003        0        
C3        C        0.0625        0.759259        0.35800550000000003        0        
C3        C        0.125        0.759259        0.35800550000000003        0        
C3        C        0.1875        0.759259        0.35800550000000003        0        
C3        C        0.25        0.759259        0.35800550000000003        0        
C3        C        0.3125        0.759259        0.35800550000000003        0        
C3        C        0.375        0.759259        0.35800550000000003        0        
C3        C        0.4375        0.759259        0.35800550000000003        0        
C3        C        0.5        0.759259        0.35800550000000003        0        
C3        C        0.5625        0.759259        0.35800550000000003        0        
C3        C        0.625        0.759259        0.35800550000000003        0        
C3        C        0.6875        0.759259        0.35800550000000003        0        
C3        C        0.75        0.759259        0.35800550000000003        0        
C3        C        0.8125        0.759259        0.35800550000000003        0        
C3        C        0.875        0.759259        0.35800550000000003        0        
C3        C        0.9375        0.759259        0.35800550000000003        0        
C4        C        0.03125        0.703703        0.35800550000000003        0        
C4        C        0.09375        0.703703        0.35800550000000003        0        
C4        C        0.15625        0.703703        0.35800550000000003        0        
C4        C        0.21875        0.703703        0.35800550000000003        0        
C4        C        0.28125        0.703703        0.35800550000000003        0        
C4        C        0.34375        0.703703        0.35800550000000003        0        
C4        C        0.40625        0.703703        0.35800550000000003        0        
C4        C        0.46875        0.703703        0.35800550000000003        0        
C4        C        0.53125        0.703703        0.35800550000000003        0        
C4        C        0.59375        0.703703        0.35800550000000003        0        
C4        C        0.65625        0.703703        0.35800550000000003        0        
C4        C        0.71875        0.703703        0.35800550000000003        0        
C4        C        0.78125        0.703703        0.35800550000000003        0        
C4        C        0.84375        0.703703        0.35800550000000003        0        
C4        C        0.9062500000000001        0.703703        0.35800550000000003        0        
C4        C        0.9687500000000001        0.703703        0.35800550000000003        0        
C1        C        0.0        0.796297        0.35800550000000003        0        
C1        C        0.0625        0.796297        0.35800550000000003        0        
C1        C        0.125        0.796297        0.35800550000000003        0        
C1        C        0.1875        0.796297        0.35800550000000003        0        
C1        C        0.25        0.796297        0.35800550000000003        0        
C1        C        0.3125        0.796297        0.35800550000000003        0        
C1        C        0.375        0.796297        0.35800550000000003        0        
C1        C        0.4375        0.796297        0.35800550000000003        0        
C1        C        0.5        0.796297        0.35800550000000003        0        
C1        C        0.5625        0.796297        0.35800550000000003        0        
C1        C        0.625        0.796297        0.35800550000000003        0        
C1        C        0.6875        0.796297        0.35800550000000003        0        
C1        C        0.75        0.796297        0.35800550000000003        0        
C1        C        0.8125        0.796297        0.35800550000000003        0        
C1        C        0.875        0.796297        0.35800550000000003        0        
C1        C        0.9375        0.796297        0.35800550000000003        0        
C2        C        0.03125        0.851852        0.35800550000000003        0        
C2        C        0.09375        0.851852        0.35800550000000003        0        
C2        C        0.15625        0.851852        0.35800550000000003        0        
C2        C        0.21875        0.851852        0.35800550000000003        0        
C2        C        0.28125        0.851852        0.35800550000000003        0        
C2        C        0.34375        0.851852        0.35800550000000003        0        
C2        C        0.40625        0.851852        0.35800550000000003        0        
C2        C        0.46875        0.851852        0.35800550000000003        0        
C2        C        0.53125        0.851852        0.35800550000000003        0        
C2        C        0.59375        0.851852        0.35800550000000003        0        
C2        C        0.65625        0.851852        0.35800550000000003        0        
C2        C        0.71875        0.851852        0.35800550000000003        0        
C2        C        0.78125        0.851852        0.35800550000000003        0        
C2        C        0.84375        0.851852        0.35800550000000003        0        
C2        C        0.9062500000000001        0.851852        0.35800550000000003        0        
C2        C        0.9687500000000001        0.851852        0.35800550000000003        0        
C3        C        0.0        0.87037        0.35800550000000003        0        
C3        C        0.0625        0.87037        0.35800550000000003        0        
C3        C        0.125        0.87037        0.35800550000000003        0        
C3        C        0.1875        0.87037        0.35800550000000003        0        
C3        C        0.25        0.87037        0.35800550000000003        0        
C3        C        0.3125        0.87037        0.35800550000000003        0        
C3        C        0.375        0.87037        0.35800550000000003        0        
C3        C        0.4375        0.87037        0.35800550000000003        0        
C3        C        0.5        0.87037        0.35800550000000003        0        
C3        C        0.5625        0.87037        0.35800550000000003        0        
C3        C        0.625        0.87037        0.35800550000000003        0        
C3        C        0.6875        0.87037        0.35800550000000003        0        
C3        C        0.75        0.87037        0.35800550000000003        0        
C3        C        0.8125        0.87037        0.35800550000000003        0        
C3        C        0.875        0.87037        0.35800550000000003        0        
C3        C        0.9375        0.87037        0.35800550000000003        0        
C4        C        0.03125        0.814814        0.35800550000000003        0        
C4        C        0.09375        0.814814        0.35800550000000003        0        
C4        C        0.15625        0.814814        0.35800550000000003        0        
C4        C        0.21875        0.814814        0.35800550000000003        0        
C4        C        0.28125        0.814814        0.35800550000000003        0        
C4        C        0.34375        0.814814        0.35800550000000003        0        
C4        C        0.40625        0.814814        0.35800550000000003        0        
C4        C        0.46875        0.814814        0.35800550000000003        0        
C4        C        0.53125        0.814814        0.35800550000000003        0        
C4        C        0.59375        0.814814        0.35800550000000003        0        
C4        C        0.65625        0.814814        0.35800550000000003        0        
C4        C        0.71875        0.814814        0.35800550000000003        0        
C4        C        0.78125        0.814814        0.35800550000000003        0        
C4        C        0.84375        0.814814        0.35800550000000003        0        
C4        C        0.9062500000000001        0.814814        0.35800550000000003        0        
C4        C        0.9687500000000001        0.814814        0.35800550000000003        0        
C1        C        0.0        0.907408        0.35800550000000003        0        
C1        C        0.0625        0.907408        0.35800550000000003        0        
C1        C        0.125        0.907408        0.35800550000000003        0        
C1        C        0.1875        0.907408        0.35800550000000003        0        
C1        C        0.25        0.907408        0.35800550000000003        0        
C1        C        0.3125        0.907408        0.35800550000000003        0        
C1        C        0.375        0.907408        0.35800550000000003        0        
C1        C        0.4375        0.907408        0.35800550000000003        0        
C1        C        0.5        0.907408        0.35800550000000003        0        
C1        C        0.5625        0.907408        0.35800550000000003        0        
C1        C        0.625        0.907408        0.35800550000000003        0        
C1        C        0.6875        0.907408        0.35800550000000003        0        
C1        C        0.75        0.907408        0.35800550000000003        0        
C1        C        0.8125        0.907408        0.35800550000000003        0        
C1        C        0.875        0.907408        0.35800550000000003        0        
C1        C        0.9375        0.907408        0.35800550000000003        0        
C2        C        0.03125        0.962963        0.35800550000000003        0        
C2        C        0.09375        0.962963        0.35800550000000003        0        
C2        C        0.15625        0.962963        0.35800550000000003        0        
C2        C        0.21875        0.962963        0.35800550000000003        0        
C2        C        0.28125        0.962963        0.35800550000000003        0        
C2        C        0.34375        0.962963        0.35800550000000003        0        
C2        C        0.40625        0.962963        0.35800550000000003        0        
C2        C        0.46875        0.962963        0.35800550000000003        0        
C2        C        0.53125        0.962963        0.35800550000000003        0        
C2        C        0.59375        0.962963        0.35800550000000003        0        
C2        C        0.65625        0.962963        0.35800550000000003        0        
C2        C        0.71875        0.962963        0.35800550000000003        0        
C2        C        0.78125        0.962963        0.35800550000000003        0        
C2        C        0.84375        0.962963        0.35800550000000003        0        
C2        C        0.9062500000000001        0.962963        0.35800550000000003        0        
C2        C        0.9687500000000001        0.962963        0.35800550000000003        0        
C3        C        0.0        0.9814809999999999        0.35800550000000003        0        
C3        C        0.0625        0.9814809999999999        0.35800550000000003        0        
C3        C        0.125        0.9814809999999999        0.35800550000000003        0        
C3        C        0.1875        0.9814809999999999        0.35800550000000003        0        
C3        C        0.25        0.9814809999999999        0.35800550000000003        0        
C3        C        0.3125        0.9814809999999999        0.35800550000000003        0        
C3        C        0.375        0.9814809999999999        0.35800550000000003        0        
C3        C        0.4375        0.9814809999999999        0.35800550000000003        0        
C3        C        0.5        0.9814809999999999        0.35800550000000003        0        
C3        C        0.5625        0.9814809999999999        0.35800550000000003        0        
C3        C        0.625        0.9814809999999999        0.35800550000000003        0        
C3        C        0.6875        0.9814809999999999        0.35800550000000003        0        
C3        C        0.75        0.9814809999999999        0.35800550000000003        0        
C3        C        0.8125        0.9814809999999999        0.35800550000000003        0        
C3        C        0.875        0.9814809999999999        0.35800550000000003        0        
C3        C        0.9375        0.9814809999999999        0.35800550000000003        0        
C4        C        0.03125        0.925925        0.35800550000000003        0        
C4        C        0.09375        0.925925        0.35800550000000003        0        
C4        C        0.15625        0.925925        0.35800550000000003        0        
C4        C        0.21875        0.925925        0.35800550000000003        0        
C4        C        0.28125        0.925925        0.35800550000000003        0        
C4        C        0.34375        0.925925        0.35800550000000003        0        
C4        C        0.40625        0.925925        0.35800550000000003        0        
C4        C        0.46875        0.925925        0.35800550000000003        0        
C4        C        0.53125        0.925925        0.35800550000000003        0        
C4        C        0.59375        0.925925        0.35800550000000003        0        
C4        C        0.65625        0.925925        0.35800550000000003        0        
C4        C        0.71875        0.925925        0.35800550000000003        0        
C4        C        0.78125        0.925925        0.35800550000000003        0        
C4        C        0.84375        0.925925        0.35800550000000003        0        
C4        C        0.9062500000000001        0.925925        0.35800550000000003        0        
C4        C        0.9687500000000001        0.925925        0.35800550000000003        0        
C_COOH        C        0.0        0.018519        0.03181503968253968        0.55        
O1_COOH        O        -0.02742903065617662        0.027515334008990547        0.014550793650793648        -0.5        
O2_COOH        O        0.026706197127776454        0.009759745162194848        0.0        -0.58        
H_COOH        H        0.0454544320267726        0.003610589351892763        0.023165079365079368        0.45        
C_COOH        C        0.0        0.203703        0.03181503968253968        0.55        
O1_COOH        O        -0.01810443375486252        0.22669010313120735        0.014550793650793648        -0.5        
O2_COOH        O        0.017627330065171344        0.18132167288298387        0.0        -0.58        
H_COOH        H        0.030002035573513594        0.16560957519519054        0.023165079365079368        0.45        
C_COOH        C        0.0        0.351852        0.03181503968253968        0.55        
O1_COOH        O        0.027381942116547733        0.3609982642401052        0.014550793650793648        -0.5        
O2_COOH        O        -0.026660349506052172        0.342946766022146        0.0        -0.58        
H_COOH        H        -0.04537639854281063        0.33669513020711345        0.023165079365079368        0.45        
O_CO        O        0.0        0.537037        0.03526742063492063        -0.5        
O_CO        O        0.25        0.018519        0.03526742063492063        -0.5        
O_CO        O        0.25        0.203703        0.03526742063492063        -0.5        
O_CO        O        0.25        0.351852        0.03526742063492063        -0.5        
O_CO        O        0.25        0.537037        0.03526742063492063        -0.5        
O_CO        O        0.5        0.018519        0.03526742063492063        -0.5        
C_COOH        C        0.5        0.203703        0.03181503968253968        0.55        
O1_COOH        O        0.5195125607516717        0.22544193984415095        0.014550793650793648        -0.5        
O2_COOH        O        0.48100165111797294        0.1825369434920557        0.0        -0.58        
H_COOH        H        0.4676644655265858        0.16767798781979207        0.023165079365079368        0.45        
C_COOH        C        0.5        0.351852        0.03181503968253968        0.55        
O1_COOH        O        0.5261222519626568        0.36428931156232497        0.014550793650793648        -0.5        
O2_COOH        O        0.4745661442038943        0.33974244722409        0.0        -0.58        
H_COOH        H        0.45671111600309383        0.3312413214786944        0.023165079365079368        0.45        
C_COOH        C        0.5        0.537037        0.03181503968253968        0.55        
O1_COOH        O        0.5021785560763348        0.5665132189232879        0.014550793650793648        -0.5        
O2_COOH        O        0.4978788551167626        0.5083375638801326        0.0        -0.58        
H_COOH        H        0.49638977292600855        0.48819003904649094        0.023165079365079368        0.45        
O_CO        O        0.75        0.018519        0.03526742063492063        -0.5        
C_COOH        C        0.75        0.203703        0.03181503968253968        0.55        
O1_COOH        O        0.7262100809637207        0.22035757796997654        0.014550793650793648        -0.5        
O2_COOH        O        0.7731629865233186        0.18748731786666298        0.0        -0.58        
H_COOH        H        0.7894238232955371        0.17610361481719145        0.023165079365079368        0.45        
O_CO        O        0.75        0.351852        0.03526742063492063        -0.5        
C_COOH        C        0.75        0.537037        0.03181503968253968        0.55        
O1_COOH        O        0.7448910159933221        0.5661289312476919        0.014550793650793648        -0.5        
O2_COOH        O        0.754974347643389        0.5087117244746825        0.0        -0.58        
H_COOH        H        0.7584664299357992        0.48882686716659696        0.023165079365079368        0.45        
O_CO        O        0.0        0.685186        0.03526742063492063        -0.5        
C_COOH        C        0.25        0.685186        0.03181503968253968        0.55        
O1_COOH        O        0.26926823635823494        0.7071534181157683        0.014550793650793648        -0.5        
O2_COOH        O        0.2312395368637741        0.6637974862773728        0.0        -0.58        
H_COOH        H        0.21806935138176475        0.6487823616044873        0.023165079365079368        0.45        
O_CO        O        0.5        0.685186        0.03526742063492063        -0.5        
C_COOH        C        0.75        0.685186        0.03181503968253968        0.55        
O1_COOH        O        0.7768160952154373        0.69595518859682        0.014550793650793648        -0.5        
O2_COOH        O        0.7238905857083425        0.6747006103711064        0.0        -0.58        
H_COOH        H        0.7055613031873923        0.6673396766211817        0.023165079365079368        0.45        
C_COOH        C        0.0        0.87037        0.03181503968253968        0.55        
O1_COOH        O        -0.0265551345383579        0.8818004044083763        0.014550793650793648        -0.5        
O2_COOH        O        0.025855330675942517        0.8592408194902409        0.0        -0.58        
H_COOH        H        0.04400624188896667        0.8514279328620179        0.023165079365079368        0.45        
C_COOH        C        0.25        0.87037        0.03181503968253968        0.55        
O1_COOH        O        0.2212051243791473        0.8703926717904129        0.014550793650793648        -0.5        
O2_COOH        O        0.2780360481651629        0.8703479256762079        0.0        -0.58        
H_COOH        H        0.2977178626191329        0.8703324291004242        0.023165079365079368        0.45        
O_CO        O        0.5        0.87037        0.03526742063492063        -0.5        
O_CO        O        0.75        0.87037        0.03526742063492063        -0.5        
C_COOH        C        0.0        0.018519        0.4183229761904762        0.55        
O1_COOH        O        -0.020290329947512575        0.03949410294076718        0.4355872222222222        -0.5        
O2_COOH        O        0.019755621631633344        -0.0019033488949796674        0.45013801587301594        -0.58        
H_COOH        H        0.0336244264320115        -0.016240208330279275        0.4269729365079365        0.45        
C_COOH        C        0.0        0.203703        0.4183229761904762        0.55        
O1_COOH        O        0.028674781941375443        0.20640010407821582        0.4355872222222222        -0.5        
O2_COOH        O        -0.027919119298148852        0.20107697234011468        0.45013801587301594        -0.58        
H_COOH        H        -0.04751884756610131        0.1992334532803537        0.4269729365079365        0.45        
C_COOH        C        0.0        0.351852        0.4183229761904762        0.55        
O1_COOH        O        0.020795536038506177        0.3722989799768607        0.4355872222222222        -0.5        
O2_COOH        O        -0.020247514094963625        0.33194385651601677        0.45013801587301594        -0.58        
H_COOH        H        -0.03446163632872395        0.317967978608172        0.4269729365079365        0.45        
O_CO        O        0.0        0.537037        0.4148705952380953        -0.5        
O_CO        O        0.25        0.018519        0.4148705952380953        -0.5        
O_CO        O        0.25        0.203703        0.4148705952380953        -0.5        
O_CO        O        0.25        0.351852        0.4148705952380953        -0.5        
O_CO        O        0.25        0.537037        0.4148705952380953        -0.5        
O_CO        O        0.5        0.018519        0.4148705952380953        -0.5        
C_COOH        C        0.5        0.203703        0.4183229761904762        0.55        
O1_COOH        O        0.5204975538332959        0.22446467166280953        0.4355872222222222        -0.5        
O2_COOH        O        0.4800426154255678        0.18348845785742868        0.45013801587301594        -0.58        
H_COOH        H        0.46603216937887487        0.16929748253243904        0.4269729365079365        0.45        
C_COOH        C        0.5        0.351852        0.4183229761904762        0.55        
O1_COOH        O        0.4967410987069851        0.38122301344905113        0.4355872222222222        -0.5        
O2_COOH        O        0.5031730199088031        0.3232549968887617        0.45013801587301594        -0.58        
H_COOH        H        0.5054005374510729        0.3031793818855612        0.4269729365079365        0.45        
C_COOH        C        0.5        0.537037        0.4183229761904762        0.55        
O1_COOH        O        0.498885508887492        0.5665757951749034        0.4355872222222222        -0.5        
O2_COOH        O        0.5010851210792275        0.5082766366919972        0.45013801587301594        -0.58        
H_COOH        H        0.5018468957635779        0.48808633986691724        0.4269729365079365        0.45        
O_CO        O        0.75        0.018519        0.4148705952380953        -0.5        
C_COOH        C        0.75        0.203703        0.4183229761904762        0.55        
O1_COOH        O        0.7694177654252348        0.22553121317733837        0.4355872222222222        -0.5        
O2_COOH        O        0.7310939483160165        0.18245002276692174        0.45013801587301594        -0.58        
H_COOH        H        0.7178215570321514        0.1675300471686609        0.4269729365079365        0.45        
O_CO        O        0.75        0.351852        0.4148705952380953        -0.5        
C_COOH        C        0.75        0.537037        0.4183229761904762        0.55        
O1_COOH        O        0.723296322248196        0.548096673066737        0.4355872222222222        -0.5        
O2_COOH        O        0.7759999593502116        0.5262687809990659        0.45013801587301594        -0.58        
H_COOH        H        0.7942524025164882        0.5187092958987569        0.4269729365079365        0.45        
O_CO        O        0.0        0.685186        0.4148705952380953        -0.5        
C_COOH        C        0.25        0.685186        0.4183229761904762        0.55        
O1_COOH        O        0.26682013313972786        0.7091793090311533        0.4355872222222222        -0.5        
O2_COOH        O        0.2336231255498683        0.6618249833907839        0.45013801587301594        -0.58        
H_COOH        H        0.22212626256958667        0.6454251259055186        0.4269729365079365        0.45        
O_CO        O        0.5        0.685186        0.4148705952380953        -0.5        
C_COOH        C        0.75        0.685186        0.4183229761904762        0.55        
O1_COOH        O        0.7384340660677097        0.7122575030072356        0.4355872222222222        -0.5        
O2_COOH        O        0.7612611384424928        0.6588279086434751        0.45013801587301594        -0.58        
H_COOH        H        0.7691666619335323        0.6403240503113817        0.4269729365079365        0.45        
C_COOH        C        0.0        0.87037        0.4183229761904762        0.55        
O1_COOH        O        0.02879257551958202        0.870744316067286        0.4355872222222222        -0.5        
O2_COOH        O        -0.028033808678149332        0.8700055482333172        0.45013801587301594        -0.58        
H_COOH        H        -0.047714050971606116        0.8697496964810656        0.4269729365079365        0.45        
C_COOH        C        0.25        0.87037        0.4183229761904762        0.55        
O1_COOH        O        0.2399548594639023        0.8980738671258859        0.4355872222222222        -0.5        
O2_COOH        O        0.259780422308611        0.8433962091307616        0.45013801587301594        -0.58        
H_COOH        H        0.2666464562098775        0.8244601185704589        0.4269729365079365        0.45        
O_CO        O        0.5        0.87037        0.4148705952380953        -0.5        
O_CO        O        0.75        0.87037        0.4148705952380953        -0.5        
