data_graphite_ortho

_audit_creation_method RASPA-1.0
_audit_creation_date 2012-2-3
_audit_author_name 'David Dubbeldam'

_cell_length_a    39.36    
_cell_length_b    38.34    
_cell_length_c    55.9    
_cell_angle_alpha 90
_cell_angle_beta  90
_cell_angle_gamma 90
_cell_volume      84356.59      

_symmetry_cell_setting          triclinic
_symmetry_space_group_name_Hall 'P 1'
_symmetry_space_group_name_H-M  'P 1'
_symmetry_Int_Tables_number     1

_symmetry_equiv_pos_as_xyz 'x,y,z'

loop_
_atom_site_label
_atom_site_type_symbol
_atom_site_fract_x
_atom_site_fract_y
_atom_site_fract_z
_atom_site_charge
C1        C        0.0        0.018519        0.214669        0        
C2        C        0.03125        0.074075        0.214669        0        
C3        C        0.0        0.092592        0.214669        0        
C4        C        0.03125        0.037037        0.214669        0        
C1        C        0.0        0.12963        0.214669        0        
C2        C        0.03125        0.185185        0.214669        0        
C3        C        0.0        0.203703        0.214669        0        
C4        C        0.03125        0.148148        0.214669        0        
C1        C        0.0        0.24074099999999998        0.214669        0        
C2        C        0.03125        0.296297        0.214669        0        
C3        C        0.0        0.314815        0.214669        0        
C4        C        0.03125        0.259259        0.214669        0        
C1        C        0.0        0.351852        0.214669        0        
C2        C        0.03125        0.407408        0.214669        0        
C3        C        0.0        0.42592500000000005        0.214669        0        
C4        C        0.03125        0.37037        0.214669        0        
C1        C        0.0        0.46296300000000007        0.214669        0        
C2        C        0.03125        0.518519        0.214669        0        
C3        C        0.0        0.537037        0.214669        0        
C4        C        0.03125        0.481481        0.214669        0        
C1        C        0.0        0.574075        0.214669        0        
C2        C        0.03125        0.62963        0.214669        0        
C3        C        0.0        0.648148        0.214669        0        
C4        C        0.03125        0.592592        0.214669        0        
C1        C        0.0625        0.018519        0.214669        0        
C2        C        0.09375        0.074075        0.214669        0        
C3        C        0.0625        0.092592        0.214669        0        
C4        C        0.09375        0.037037        0.214669        0        
C1        C        0.0625        0.12963        0.214669        0        
C2        C        0.09375        0.185185        0.214669        0        
C3        C        0.0625        0.203703        0.214669        0        
C4        C        0.09375        0.148148        0.214669        0        
C1        C        0.0625        0.24074099999999998        0.214669        0        
C2        C        0.09375        0.296297        0.214669        0        
C3        C        0.0625        0.314815        0.214669        0        
C4        C        0.09375        0.259259        0.214669        0        
C1        C        0.0625        0.351852        0.214669        0        
C2        C        0.09375        0.407408        0.214669        0        
C3        C        0.0625        0.42592500000000005        0.214669        0        
C4        C        0.09375        0.37037        0.214669        0        
C1        C        0.0625        0.46296300000000007        0.214669        0        
C2        C        0.09375        0.518519        0.214669        0        
C3        C        0.0625        0.537037        0.214669        0        
C4        C        0.09375        0.481481        0.214669        0        
C1        C        0.0625        0.574075        0.214669        0        
C2        C        0.09375        0.62963        0.214669        0        
C3        C        0.0625        0.648148        0.214669        0        
C4        C        0.09375        0.592592        0.214669        0        
C1        C        0.125        0.018519        0.214669        0        
C2        C        0.15625        0.074075        0.214669        0        
C3        C        0.125        0.092592        0.214669        0        
C4        C        0.15625        0.037037        0.214669        0        
C1        C        0.125        0.12963        0.214669        0        
C2        C        0.15625        0.185185        0.214669        0        
C3        C        0.125        0.203703        0.214669        0        
C4        C        0.15625        0.148148        0.214669        0        
C1        C        0.125        0.24074099999999998        0.214669        0        
C2        C        0.15625        0.296297        0.214669        0        
C3        C        0.125        0.314815        0.214669        0        
C4        C        0.15625        0.259259        0.214669        0        
C1        C        0.125        0.351852        0.214669        0        
C2        C        0.15625        0.407408        0.214669        0        
C3        C        0.125        0.42592500000000005        0.214669        0        
C4        C        0.15625        0.37037        0.214669        0        
C1        C        0.125        0.46296300000000007        0.214669        0        
C2        C        0.15625        0.518519        0.214669        0        
C3        C        0.125        0.537037        0.214669        0        
C4        C        0.15625        0.481481        0.214669        0        
C1        C        0.125        0.574075        0.214669        0        
C2        C        0.15625        0.62963        0.214669        0        
C3        C        0.125        0.648148        0.214669        0        
C4        C        0.15625        0.592592        0.214669        0        
C1        C        0.1875        0.018519        0.214669        0        
C2        C        0.21875        0.074075        0.214669        0        
C3        C        0.1875        0.092592        0.214669        0        
C4        C        0.21875        0.037037        0.214669        0        
C1        C        0.1875        0.12963        0.214669        0        
C2        C        0.21875        0.185185        0.214669        0        
C3        C        0.1875        0.203703        0.214669        0        
C4        C        0.21875        0.148148        0.214669        0        
C1        C        0.1875        0.24074099999999998        0.214669        0        
C2        C        0.21875        0.296297        0.214669        0        
C3        C        0.1875        0.314815        0.214669        0        
C4        C        0.21875        0.259259        0.214669        0        
C1        C        0.1875        0.351852        0.214669        0        
C2        C        0.21875        0.407408        0.214669        0        
C3        C        0.1875        0.42592500000000005        0.214669        0        
C4        C        0.21875        0.37037        0.214669        0        
C1        C        0.1875        0.46296300000000007        0.214669        0        
C2        C        0.21875        0.518519        0.214669        0        
C3        C        0.1875        0.537037        0.214669        0        
C4        C        0.21875        0.481481        0.214669        0        
C1        C        0.1875        0.574075        0.214669        0        
C2        C        0.21875        0.62963        0.214669        0        
C3        C        0.1875        0.648148        0.214669        0        
C4        C        0.21875        0.592592        0.214669        0        
C1        C        0.25        0.018519        0.214669        0        
C2        C        0.28125        0.074075        0.214669        0        
C3        C        0.25        0.092592        0.214669        0        
C4        C        0.28125        0.037037        0.214669        0        
C1        C        0.25        0.12963        0.214669        0        
C2        C        0.28125        0.185185        0.214669        0        
C3        C        0.25        0.203703        0.214669        0        
C4        C        0.28125        0.148148        0.214669        0        
C1        C        0.25        0.24074099999999998        0.214669        0        
C2        C        0.28125        0.296297        0.214669        0        
C3        C        0.25        0.314815        0.214669        0        
C4        C        0.28125        0.259259        0.214669        0        
C1        C        0.25        0.351852        0.214669        0        
C2        C        0.28125        0.407408        0.214669        0        
C3        C        0.25        0.42592500000000005        0.214669        0        
C4        C        0.28125        0.37037        0.214669        0        
C1        C        0.25        0.46296300000000007        0.214669        0        
C2        C        0.28125        0.518519        0.214669        0        
C3        C        0.25        0.537037        0.214669        0        
C4        C        0.28125        0.481481        0.214669        0        
C1        C        0.25        0.574075        0.214669        0        
C2        C        0.28125        0.62963        0.214669        0        
C3        C        0.25        0.648148        0.214669        0        
C4        C        0.28125        0.592592        0.214669        0        
C1        C        0.3125        0.018519        0.214669        0        
C2        C        0.34375        0.074075        0.214669        0        
C3        C        0.3125        0.092592        0.214669        0        
C4        C        0.34375        0.037037        0.214669        0        
C1        C        0.3125        0.12963        0.214669        0        
C2        C        0.34375        0.185185        0.214669        0        
C3        C        0.3125        0.203703        0.214669        0        
C4        C        0.34375        0.148148        0.214669        0        
C1        C        0.3125        0.24074099999999998        0.214669        0        
C2        C        0.34375        0.296297        0.214669        0        
C3        C        0.3125        0.314815        0.214669        0        
C4        C        0.34375        0.259259        0.214669        0        
C1        C        0.3125        0.351852        0.214669        0        
C2        C        0.34375        0.407408        0.214669        0        
C3        C        0.3125        0.42592500000000005        0.214669        0        
C4        C        0.34375        0.37037        0.214669        0        
C1        C        0.3125        0.46296300000000007        0.214669        0        
C2        C        0.34375        0.518519        0.214669        0        
C3        C        0.3125        0.537037        0.214669        0        
C4        C        0.34375        0.481481        0.214669        0        
C1        C        0.3125        0.574075        0.214669        0        
C2        C        0.34375        0.62963        0.214669        0        
C3        C        0.3125        0.648148        0.214669        0        
C4        C        0.34375        0.592592        0.214669        0        
C1        C        0.375        0.018519        0.214669        0        
C2        C        0.40625        0.074075        0.214669        0        
C3        C        0.375        0.092592        0.214669        0        
C4        C        0.40625        0.037037        0.214669        0        
C1        C        0.375        0.12963        0.214669        0        
C2        C        0.40625        0.185185        0.214669        0        
C3        C        0.375        0.203703        0.214669        0        
C4        C        0.40625        0.148148        0.214669        0        
C1        C        0.375        0.24074099999999998        0.214669        0        
C2        C        0.40625        0.296297        0.214669        0        
C3        C        0.375        0.314815        0.214669        0        
C4        C        0.40625        0.259259        0.214669        0        
C1        C        0.375        0.351852        0.214669        0        
C2        C        0.40625        0.407408        0.214669        0        
C3        C        0.375        0.42592500000000005        0.214669        0        
C4        C        0.40625        0.37037        0.214669        0        
C1        C        0.375        0.46296300000000007        0.214669        0        
C2        C        0.40625        0.518519        0.214669        0        
C3        C        0.375        0.537037        0.214669        0        
C4        C        0.40625        0.481481        0.214669        0        
C1        C        0.375        0.574075        0.214669        0        
C2        C        0.40625        0.62963        0.214669        0        
C3        C        0.375        0.648148        0.214669        0        
C4        C        0.40625        0.592592        0.214669        0        
C1        C        0.4375        0.018519        0.214669        0        
C2        C        0.46875        0.074075        0.214669        0        
C3        C        0.4375        0.092592        0.214669        0        
C4        C        0.46875        0.037037        0.214669        0        
C1        C        0.4375        0.12963        0.214669        0        
C2        C        0.46875        0.185185        0.214669        0        
C3        C        0.4375        0.203703        0.214669        0        
C4        C        0.46875        0.148148        0.214669        0        
C1        C        0.4375        0.24074099999999998        0.214669        0        
C2        C        0.46875        0.296297        0.214669        0        
C3        C        0.4375        0.314815        0.214669        0        
C4        C        0.46875        0.259259        0.214669        0        
C1        C        0.4375        0.351852        0.214669        0        
C2        C        0.46875        0.407408        0.214669        0        
C3        C        0.4375        0.42592500000000005        0.214669        0        
C4        C        0.46875        0.37037        0.214669        0        
C1        C        0.4375        0.46296300000000007        0.214669        0        
C2        C        0.46875        0.518519        0.214669        0        
C3        C        0.4375        0.537037        0.214669        0        
C4        C        0.46875        0.481481        0.214669        0        
C1        C        0.4375        0.574075        0.214669        0        
C2        C        0.46875        0.62963        0.214669        0        
C3        C        0.4375        0.648148        0.214669        0        
C4        C        0.46875        0.592592        0.214669        0        
C1        C        0.5        0.018519        0.214669        0        
C2        C        0.53125        0.074075        0.214669        0        
C3        C        0.5        0.092592        0.214669        0        
C4        C        0.53125        0.037037        0.214669        0        
C1        C        0.5        0.12963        0.214669        0        
C2        C        0.53125        0.185185        0.214669        0        
C3        C        0.5        0.203703        0.214669        0        
C4        C        0.53125        0.148148        0.214669        0        
C1        C        0.5        0.24074099999999998        0.214669        0        
C2        C        0.53125        0.296297        0.214669        0        
C3        C        0.5        0.314815        0.214669        0        
C4        C        0.53125        0.259259        0.214669        0        
C1        C        0.5        0.351852        0.214669        0        
C2        C        0.53125        0.407408        0.214669        0        
C3        C        0.5        0.42592500000000005        0.214669        0        
C4        C        0.53125        0.37037        0.214669        0        
C1        C        0.5        0.46296300000000007        0.214669        0        
C2        C        0.53125        0.518519        0.214669        0        
C3        C        0.5        0.537037        0.214669        0        
C4        C        0.53125        0.481481        0.214669        0        
C1        C        0.5        0.574075        0.214669        0        
C2        C        0.53125        0.62963        0.214669        0        
C3        C        0.5        0.648148        0.214669        0        
C4        C        0.53125        0.592592        0.214669        0        
C1        C        0.5625        0.018519        0.214669        0        
C2        C        0.59375        0.074075        0.214669        0        
C3        C        0.5625        0.092592        0.214669        0        
C4        C        0.59375        0.037037        0.214669        0        
C1        C        0.5625        0.12963        0.214669        0        
C2        C        0.59375        0.185185        0.214669        0        
C3        C        0.5625        0.203703        0.214669        0        
C4        C        0.59375        0.148148        0.214669        0        
C1        C        0.5625        0.24074099999999998        0.214669        0        
C2        C        0.59375        0.296297        0.214669        0        
C3        C        0.5625        0.314815        0.214669        0        
C4        C        0.59375        0.259259        0.214669        0        
C1        C        0.5625        0.351852        0.214669        0        
C2        C        0.59375        0.407408        0.214669        0        
C3        C        0.5625        0.42592500000000005        0.214669        0        
C4        C        0.59375        0.37037        0.214669        0        
C1        C        0.5625        0.46296300000000007        0.214669        0        
C2        C        0.59375        0.518519        0.214669        0        
C3        C        0.5625        0.537037        0.214669        0        
C4        C        0.59375        0.481481        0.214669        0        
C1        C        0.5625        0.574075        0.214669        0        
C2        C        0.59375        0.62963        0.214669        0        
C3        C        0.5625        0.648148        0.214669        0        
C4        C        0.59375        0.592592        0.214669        0        
C1        C        0.625        0.018519        0.214669        0        
C2        C        0.65625        0.074075        0.214669        0        
C3        C        0.625        0.092592        0.214669        0        
C4        C        0.65625        0.037037        0.214669        0        
C1        C        0.625        0.12963        0.214669        0        
C2        C        0.65625        0.185185        0.214669        0        
C3        C        0.625        0.203703        0.214669        0        
C4        C        0.65625        0.148148        0.214669        0        
C1        C        0.625        0.24074099999999998        0.214669        0        
C2        C        0.65625        0.296297        0.214669        0        
C3        C        0.625        0.314815        0.214669        0        
C4        C        0.65625        0.259259        0.214669        0        
C1        C        0.625        0.351852        0.214669        0        
C2        C        0.65625        0.407408        0.214669        0        
C3        C        0.625        0.42592500000000005        0.214669        0        
C4        C        0.65625        0.37037        0.214669        0        
C1        C        0.625        0.46296300000000007        0.214669        0        
C2        C        0.65625        0.518519        0.214669        0        
C3        C        0.625        0.537037        0.214669        0        
C4        C        0.65625        0.481481        0.214669        0        
C1        C        0.625        0.574075        0.214669        0        
C2        C        0.65625        0.62963        0.214669        0        
C3        C        0.625        0.648148        0.214669        0        
C4        C        0.65625        0.592592        0.214669        0        
C1        C        0.6875        0.018519        0.214669        0        
C2        C        0.71875        0.074075        0.214669        0        
C3        C        0.6875        0.092592        0.214669        0        
C4        C        0.71875        0.037037        0.214669        0        
C1        C        0.6875        0.12963        0.214669        0        
C2        C        0.71875        0.185185        0.214669        0        
C3        C        0.6875        0.203703        0.214669        0        
C4        C        0.71875        0.148148        0.214669        0        
C1        C        0.6875        0.24074099999999998        0.214669        0        
C2        C        0.71875        0.296297        0.214669        0        
C3        C        0.6875        0.314815        0.214669        0        
C4        C        0.71875        0.259259        0.214669        0        
C1        C        0.6875        0.351852        0.214669        0        
C2        C        0.71875        0.407408        0.214669        0        
C3        C        0.6875        0.42592500000000005        0.214669        0        
C4        C        0.71875        0.37037        0.214669        0        
C1        C        0.6875        0.46296300000000007        0.214669        0        
C2        C        0.71875        0.518519        0.214669        0        
C3        C        0.6875        0.537037        0.214669        0        
C4        C        0.71875        0.481481        0.214669        0        
C1        C        0.6875        0.574075        0.214669        0        
C2        C        0.71875        0.62963        0.214669        0        
C3        C        0.6875        0.648148        0.214669        0        
C4        C        0.71875        0.592592        0.214669        0        
C1        C        0.75        0.018519        0.214669        0        
C2        C        0.78125        0.074075        0.214669        0        
C3        C        0.75        0.092592        0.214669        0        
C4        C        0.78125        0.037037        0.214669        0        
C1        C        0.75        0.12963        0.214669        0        
C2        C        0.78125        0.185185        0.214669        0        
C3        C        0.75        0.203703        0.214669        0        
C4        C        0.78125        0.148148        0.214669        0        
C1        C        0.75        0.24074099999999998        0.214669        0        
C2        C        0.78125        0.296297        0.214669        0        
C3        C        0.75        0.314815        0.214669        0        
C4        C        0.78125        0.259259        0.214669        0        
C1        C        0.75        0.351852        0.214669        0        
C2        C        0.78125        0.407408        0.214669        0        
C3        C        0.75        0.42592500000000005        0.214669        0        
C4        C        0.78125        0.37037        0.214669        0        
C1        C        0.75        0.46296300000000007        0.214669        0        
C2        C        0.78125        0.518519        0.214669        0        
C3        C        0.75        0.537037        0.214669        0        
C4        C        0.78125        0.481481        0.214669        0        
C1        C        0.75        0.574075        0.214669        0        
C2        C        0.78125        0.62963        0.214669        0        
C3        C        0.75        0.648148        0.214669        0        
C4        C        0.78125        0.592592        0.214669        0        
C1        C        0.8125        0.018519        0.214669        0        
C2        C        0.84375        0.074075        0.214669        0        
C3        C        0.8125        0.092592        0.214669        0        
C4        C        0.84375        0.037037        0.214669        0        
C1        C        0.8125        0.12963        0.214669        0        
C2        C        0.84375        0.185185        0.214669        0        
C3        C        0.8125        0.203703        0.214669        0        
C4        C        0.84375        0.148148        0.214669        0        
C1        C        0.8125        0.24074099999999998        0.214669        0        
C2        C        0.84375        0.296297        0.214669        0        
C3        C        0.8125        0.314815        0.214669        0        
C4        C        0.84375        0.259259        0.214669        0        
C1        C        0.8125        0.351852        0.214669        0        
C2        C        0.84375        0.407408        0.214669        0        
C3        C        0.8125        0.42592500000000005        0.214669        0        
C4        C        0.84375        0.37037        0.214669        0        
C1        C        0.8125        0.46296300000000007        0.214669        0        
C2        C        0.84375        0.518519        0.214669        0        
C3        C        0.8125        0.537037        0.214669        0        
C4        C        0.84375        0.481481        0.214669        0        
C1        C        0.8125        0.574075        0.214669        0        
C2        C        0.84375        0.62963        0.214669        0        
C3        C        0.8125        0.648148        0.214669        0        
C4        C        0.84375        0.592592        0.214669        0        
C1        C        0.875        0.018519        0.214669        0        
C2        C        0.9062500000000001        0.074075        0.214669        0        
C3        C        0.875        0.092592        0.214669        0        
C4        C        0.9062500000000001        0.037037        0.214669        0        
C1        C        0.875        0.12963        0.214669        0        
C2        C        0.9062500000000001        0.185185        0.214669        0        
C3        C        0.875        0.203703        0.214669        0        
C4        C        0.9062500000000001        0.148148        0.214669        0        
C1        C        0.875        0.24074099999999998        0.214669        0        
C2        C        0.9062500000000001        0.296297        0.214669        0        
C3        C        0.875        0.314815        0.214669        0        
C4        C        0.9062500000000001        0.259259        0.214669        0        
C1        C        0.875        0.351852        0.214669        0        
C2        C        0.9062500000000001        0.407408        0.214669        0        
C3        C        0.875        0.42592500000000005        0.214669        0        
C4        C        0.9062500000000001        0.37037        0.214669        0        
C1        C        0.875        0.46296300000000007        0.214669        0        
C2        C        0.9062500000000001        0.518519        0.214669        0        
C3        C        0.875        0.537037        0.214669        0        
C4        C        0.9062500000000001        0.481481        0.214669        0        
C1        C        0.875        0.574075        0.214669        0        
C2        C        0.9062500000000001        0.62963        0.214669        0        
C3        C        0.875        0.648148        0.214669        0        
C4        C        0.9062500000000001        0.592592        0.214669        0        
C1        C        0.9375        0.018519        0.214669        0        
C2        C        0.9687500000000001        0.074075        0.214669        0        
C3        C        0.9375        0.092592        0.214669        0        
C4        C        0.9687500000000001        0.037037        0.214669        0        
C1        C        0.9375        0.12963        0.214669        0        
C2        C        0.9687500000000001        0.185185        0.214669        0        
C3        C        0.9375        0.203703        0.214669        0        
C4        C        0.9687500000000001        0.148148        0.214669        0        
C1        C        0.9375        0.24074099999999998        0.214669        0        
C2        C        0.9687500000000001        0.296297        0.214669        0        
C3        C        0.9375        0.314815        0.214669        0        
C4        C        0.9687500000000001        0.259259        0.214669        0        
C1        C        0.9375        0.351852        0.214669        0        
C2        C        0.9687500000000001        0.407408        0.214669        0        
C3        C        0.9375        0.42592500000000005        0.214669        0        
C4        C        0.9687500000000001        0.37037        0.214669        0        
C1        C        0.9375        0.46296300000000007        0.214669        0        
C2        C        0.9687500000000001        0.518519        0.214669        0        
C3        C        0.9375        0.537037        0.214669        0        
C4        C        0.9687500000000001        0.481481        0.214669        0        
C1        C        0.9375        0.574075        0.214669        0        
C2        C        0.9687500000000001        0.62963        0.214669        0        
C3        C        0.9375        0.648148        0.214669        0        
C4        C        0.9687500000000001        0.592592        0.214669        0        
C1        C        0.0        0.685186        0.214669        0        
C1        C        0.0625        0.685186        0.214669        0        
C1        C        0.125        0.685186        0.214669        0        
C1        C        0.1875        0.685186        0.214669        0        
C1        C        0.25        0.685186        0.214669        0        
C1        C        0.3125        0.685186        0.214669        0        
C1        C        0.375        0.685186        0.214669        0        
C1        C        0.4375        0.685186        0.214669        0        
C1        C        0.5        0.685186        0.214669        0        
C1        C        0.5625        0.685186        0.214669        0        
C1        C        0.625        0.685186        0.214669        0        
C1        C        0.6875        0.685186        0.214669        0        
C1        C        0.75        0.685186        0.214669        0        
C1        C        0.8125        0.685186        0.214669        0        
C1        C        0.875        0.685186        0.214669        0        
C1        C        0.9375        0.685186        0.214669        0        
C2        C        0.03125        0.740741        0.214669        0        
C2        C        0.09375        0.740741        0.214669        0        
C2        C        0.15625        0.740741        0.214669        0        
C2        C        0.21875        0.740741        0.214669        0        
C2        C        0.28125        0.740741        0.214669        0        
C2        C        0.34375        0.740741        0.214669        0        
C2        C        0.40625        0.740741        0.214669        0        
C2        C        0.46875        0.740741        0.214669        0        
C2        C        0.53125        0.740741        0.214669        0        
C2        C        0.59375        0.740741        0.214669        0        
C2        C        0.65625        0.740741        0.214669        0        
C2        C        0.71875        0.740741        0.214669        0        
C2        C        0.78125        0.740741        0.214669        0        
C2        C        0.84375        0.740741        0.214669        0        
C2        C        0.9062500000000001        0.740741        0.214669        0        
C2        C        0.9687500000000001        0.740741        0.214669        0        
C3        C        0.0        0.759259        0.214669        0        
C3        C        0.0625        0.759259        0.214669        0        
C3        C        0.125        0.759259        0.214669        0        
C3        C        0.1875        0.759259        0.214669        0        
C3        C        0.25        0.759259        0.214669        0        
C3        C        0.3125        0.759259        0.214669        0        
C3        C        0.375        0.759259        0.214669        0        
C3        C        0.4375        0.759259        0.214669        0        
C3        C        0.5        0.759259        0.214669        0        
C3        C        0.5625        0.759259        0.214669        0        
C3        C        0.625        0.759259        0.214669        0        
C3        C        0.6875        0.759259        0.214669        0        
C3        C        0.75        0.759259        0.214669        0        
C3        C        0.8125        0.759259        0.214669        0        
C3        C        0.875        0.759259        0.214669        0        
C3        C        0.9375        0.759259        0.214669        0        
C4        C        0.03125        0.703703        0.214669        0        
C4        C        0.09375        0.703703        0.214669        0        
C4        C        0.15625        0.703703        0.214669        0        
C4        C        0.21875        0.703703        0.214669        0        
C4        C        0.28125        0.703703        0.214669        0        
C4        C        0.34375        0.703703        0.214669        0        
C4        C        0.40625        0.703703        0.214669        0        
C4        C        0.46875        0.703703        0.214669        0        
C4        C        0.53125        0.703703        0.214669        0        
C4        C        0.59375        0.703703        0.214669        0        
C4        C        0.65625        0.703703        0.214669        0        
C4        C        0.71875        0.703703        0.214669        0        
C4        C        0.78125        0.703703        0.214669        0        
C4        C        0.84375        0.703703        0.214669        0        
C4        C        0.9062500000000001        0.703703        0.214669        0        
C4        C        0.9687500000000001        0.703703        0.214669        0        
C1        C        0.0        0.796297        0.214669        0        
C1        C        0.0625        0.796297        0.214669        0        
C1        C        0.125        0.796297        0.214669        0        
C1        C        0.1875        0.796297        0.214669        0        
C1        C        0.25        0.796297        0.214669        0        
C1        C        0.3125        0.796297        0.214669        0        
C1        C        0.375        0.796297        0.214669        0        
C1        C        0.4375        0.796297        0.214669        0        
C1        C        0.5        0.796297        0.214669        0        
C1        C        0.5625        0.796297        0.214669        0        
C1        C        0.625        0.796297        0.214669        0        
C1        C        0.6875        0.796297        0.214669        0        
C1        C        0.75        0.796297        0.214669        0        
C1        C        0.8125        0.796297        0.214669        0        
C1        C        0.875        0.796297        0.214669        0        
C1        C        0.9375        0.796297        0.214669        0        
C2        C        0.03125        0.851852        0.214669        0        
C2        C        0.09375        0.851852        0.214669        0        
C2        C        0.15625        0.851852        0.214669        0        
C2        C        0.21875        0.851852        0.214669        0        
C2        C        0.28125        0.851852        0.214669        0        
C2        C        0.34375        0.851852        0.214669        0        
C2        C        0.40625        0.851852        0.214669        0        
C2        C        0.46875        0.851852        0.214669        0        
C2        C        0.53125        0.851852        0.214669        0        
C2        C        0.59375        0.851852        0.214669        0        
C2        C        0.65625        0.851852        0.214669        0        
C2        C        0.71875        0.851852        0.214669        0        
C2        C        0.78125        0.851852        0.214669        0        
C2        C        0.84375        0.851852        0.214669        0        
C2        C        0.9062500000000001        0.851852        0.214669        0        
C2        C        0.9687500000000001        0.851852        0.214669        0        
C3        C        0.0        0.87037        0.214669        0        
C3        C        0.0625        0.87037        0.214669        0        
C3        C        0.125        0.87037        0.214669        0        
C3        C        0.1875        0.87037        0.214669        0        
C3        C        0.25        0.87037        0.214669        0        
C3        C        0.3125        0.87037        0.214669        0        
C3        C        0.375        0.87037        0.214669        0        
C3        C        0.4375        0.87037        0.214669        0        
C3        C        0.5        0.87037        0.214669        0        
C3        C        0.5625        0.87037        0.214669        0        
C3        C        0.625        0.87037        0.214669        0        
C3        C        0.6875        0.87037        0.214669        0        
C3        C        0.75        0.87037        0.214669        0        
C3        C        0.8125        0.87037        0.214669        0        
C3        C        0.875        0.87037        0.214669        0        
C3        C        0.9375        0.87037        0.214669        0        
C4        C        0.03125        0.814814        0.214669        0        
C4        C        0.09375        0.814814        0.214669        0        
C4        C        0.15625        0.814814        0.214669        0        
C4        C        0.21875        0.814814        0.214669        0        
C4        C        0.28125        0.814814        0.214669        0        
C4        C        0.34375        0.814814        0.214669        0        
C4        C        0.40625        0.814814        0.214669        0        
C4        C        0.46875        0.814814        0.214669        0        
C4        C        0.53125        0.814814        0.214669        0        
C4        C        0.59375        0.814814        0.214669        0        
C4        C        0.65625        0.814814        0.214669        0        
C4        C        0.71875        0.814814        0.214669        0        
C4        C        0.78125        0.814814        0.214669        0        
C4        C        0.84375        0.814814        0.214669        0        
C4        C        0.9062500000000001        0.814814        0.214669        0        
C4        C        0.9687500000000001        0.814814        0.214669        0        
C1        C        0.0        0.907408        0.214669        0        
C1        C        0.0625        0.907408        0.214669        0        
C1        C        0.125        0.907408        0.214669        0        
C1        C        0.1875        0.907408        0.214669        0        
C1        C        0.25        0.907408        0.214669        0        
C1        C        0.3125        0.907408        0.214669        0        
C1        C        0.375        0.907408        0.214669        0        
C1        C        0.4375        0.907408        0.214669        0        
C1        C        0.5        0.907408        0.214669        0        
C1        C        0.5625        0.907408        0.214669        0        
C1        C        0.625        0.907408        0.214669        0        
C1        C        0.6875        0.907408        0.214669        0        
C1        C        0.75        0.907408        0.214669        0        
C1        C        0.8125        0.907408        0.214669        0        
C1        C        0.875        0.907408        0.214669        0        
C1        C        0.9375        0.907408        0.214669        0        
C2        C        0.03125        0.962963        0.214669        0        
C2        C        0.09375        0.962963        0.214669        0        
C2        C        0.15625        0.962963        0.214669        0        
C2        C        0.21875        0.962963        0.214669        0        
C2        C        0.28125        0.962963        0.214669        0        
C2        C        0.34375        0.962963        0.214669        0        
C2        C        0.40625        0.962963        0.214669        0        
C2        C        0.46875        0.962963        0.214669        0        
C2        C        0.53125        0.962963        0.214669        0        
C2        C        0.59375        0.962963        0.214669        0        
C2        C        0.65625        0.962963        0.214669        0        
C2        C        0.71875        0.962963        0.214669        0        
C2        C        0.78125        0.962963        0.214669        0        
C2        C        0.84375        0.962963        0.214669        0        
C2        C        0.9062500000000001        0.962963        0.214669        0        
C2        C        0.9687500000000001        0.962963        0.214669        0        
C3        C        0.0        0.9814809999999999        0.214669        0        
C3        C        0.0625        0.9814809999999999        0.214669        0        
C3        C        0.125        0.9814809999999999        0.214669        0        
C3        C        0.1875        0.9814809999999999        0.214669        0        
C3        C        0.25        0.9814809999999999        0.214669        0        
C3        C        0.3125        0.9814809999999999        0.214669        0        
C3        C        0.375        0.9814809999999999        0.214669        0        
C3        C        0.4375        0.9814809999999999        0.214669        0        
C3        C        0.5        0.9814809999999999        0.214669        0        
C3        C        0.5625        0.9814809999999999        0.214669        0        
C3        C        0.625        0.9814809999999999        0.214669        0        
C3        C        0.6875        0.9814809999999999        0.214669        0        
C3        C        0.75        0.9814809999999999        0.214669        0        
C3        C        0.8125        0.9814809999999999        0.214669        0        
C3        C        0.875        0.9814809999999999        0.214669        0        
C3        C        0.9375        0.9814809999999999        0.214669        0        
C4        C        0.03125        0.925925        0.214669        0        
C4        C        0.09375        0.925925        0.214669        0        
C4        C        0.15625        0.925925        0.214669        0        
C4        C        0.21875        0.925925        0.214669        0        
C4        C        0.28125        0.925925        0.214669        0        
C4        C        0.34375        0.925925        0.214669        0        
C4        C        0.40625        0.925925        0.214669        0        
C4        C        0.46875        0.925925        0.214669        0        
C4        C        0.53125        0.925925        0.214669        0        
C4        C        0.59375        0.925925        0.214669        0        
C4        C        0.65625        0.925925        0.214669        0        
C4        C        0.71875        0.925925        0.214669        0        
C4        C        0.78125        0.925925        0.214669        0        
C4        C        0.84375        0.925925        0.214669        0        
C4        C        0.9062500000000001        0.925925        0.214669        0        
C4        C        0.9687500000000001        0.925925        0.214669        0        
C1        C        0.0        0.018519        0.274598        0        
C2        C        0.03125        0.074075        0.274598        0        
C3        C        0.0        0.092592        0.274598        0        
C4        C        0.03125        0.037037        0.274598        0        
C1        C        0.0        0.12963        0.274598        0        
C2        C        0.03125        0.185185        0.274598        0        
C3        C        0.0        0.203703        0.274598        0        
C4        C        0.03125        0.148148        0.274598        0        
C1        C        0.0        0.24074099999999998        0.274598        0        
C2        C        0.03125        0.296297        0.274598        0        
C3        C        0.0        0.314815        0.274598        0        
C4        C        0.03125        0.259259        0.274598        0        
C1        C        0.0        0.351852        0.274598        0        
C2        C        0.03125        0.407408        0.274598        0        
C3        C        0.0        0.42592500000000005        0.274598        0        
C4        C        0.03125        0.37037        0.274598        0        
C1        C        0.0        0.46296300000000007        0.274598        0        
C2        C        0.03125        0.518519        0.274598        0        
C3        C        0.0        0.537037        0.274598        0        
C4        C        0.03125        0.481481        0.274598        0        
C1        C        0.0        0.574075        0.274598        0        
C2        C        0.03125        0.62963        0.274598        0        
C3        C        0.0        0.648148        0.274598        0        
C4        C        0.03125        0.592592        0.274598        0        
C1        C        0.0625        0.018519        0.274598        0        
C2        C        0.09375        0.074075        0.274598        0        
C3        C        0.0625        0.092592        0.274598        0        
C4        C        0.09375        0.037037        0.274598        0        
C1        C        0.0625        0.12963        0.274598        0        
C2        C        0.09375        0.185185        0.274598        0        
C3        C        0.0625        0.203703        0.274598        0        
C4        C        0.09375        0.148148        0.274598        0        
C1        C        0.0625        0.24074099999999998        0.274598        0        
C2        C        0.09375        0.296297        0.274598        0        
C3        C        0.0625        0.314815        0.274598        0        
C4        C        0.09375        0.259259        0.274598        0        
C1        C        0.0625        0.351852        0.274598        0        
C2        C        0.09375        0.407408        0.274598        0        
C3        C        0.0625        0.42592500000000005        0.274598        0        
C4        C        0.09375        0.37037        0.274598        0        
C1        C        0.0625        0.46296300000000007        0.274598        0        
C2        C        0.09375        0.518519        0.274598        0        
C3        C        0.0625        0.537037        0.274598        0        
C4        C        0.09375        0.481481        0.274598        0        
C1        C        0.0625        0.574075        0.274598        0        
C2        C        0.09375        0.62963        0.274598        0        
C3        C        0.0625        0.648148        0.274598        0        
C4        C        0.09375        0.592592        0.274598        0        
C1        C        0.125        0.018519        0.274598        0        
C2        C        0.15625        0.074075        0.274598        0        
C3        C        0.125        0.092592        0.274598        0        
C4        C        0.15625        0.037037        0.274598        0        
C1        C        0.125        0.12963        0.274598        0        
C2        C        0.15625        0.185185        0.274598        0        
C3        C        0.125        0.203703        0.274598        0        
C4        C        0.15625        0.148148        0.274598        0        
C1        C        0.125        0.24074099999999998        0.274598        0        
C2        C        0.15625        0.296297        0.274598        0        
C3        C        0.125        0.314815        0.274598        0        
C4        C        0.15625        0.259259        0.274598        0        
C1        C        0.125        0.351852        0.274598        0        
C2        C        0.15625        0.407408        0.274598        0        
C3        C        0.125        0.42592500000000005        0.274598        0        
C4        C        0.15625        0.37037        0.274598        0        
C1        C        0.125        0.46296300000000007        0.274598        0        
C2        C        0.15625        0.518519        0.274598        0        
C3        C        0.125        0.537037        0.274598        0        
C4        C        0.15625        0.481481        0.274598        0        
C1        C        0.125        0.574075        0.274598        0        
C2        C        0.15625        0.62963        0.274598        0        
C3        C        0.125        0.648148        0.274598        0        
C4        C        0.15625        0.592592        0.274598        0        
C1        C        0.1875        0.018519        0.274598        0        
C2        C        0.21875        0.074075        0.274598        0        
C3        C        0.1875        0.092592        0.274598        0        
C4        C        0.21875        0.037037        0.274598        0        
C1        C        0.1875        0.12963        0.274598        0        
C2        C        0.21875        0.185185        0.274598        0        
C3        C        0.1875        0.203703        0.274598        0        
C4        C        0.21875        0.148148        0.274598        0        
C1        C        0.1875        0.24074099999999998        0.274598        0        
C2        C        0.21875        0.296297        0.274598        0        
C3        C        0.1875        0.314815        0.274598        0        
C4        C        0.21875        0.259259        0.274598        0        
C1        C        0.1875        0.351852        0.274598        0        
C2        C        0.21875        0.407408        0.274598        0        
C3        C        0.1875        0.42592500000000005        0.274598        0        
C4        C        0.21875        0.37037        0.274598        0        
C1        C        0.1875        0.46296300000000007        0.274598        0        
C2        C        0.21875        0.518519        0.274598        0        
C3        C        0.1875        0.537037        0.274598        0        
C4        C        0.21875        0.481481        0.274598        0        
C1        C        0.1875        0.574075        0.274598        0        
C2        C        0.21875        0.62963        0.274598        0        
C3        C        0.1875        0.648148        0.274598        0        
C4        C        0.21875        0.592592        0.274598        0        
C1        C        0.25        0.018519        0.274598        0        
C2        C        0.28125        0.074075        0.274598        0        
C3        C        0.25        0.092592        0.274598        0        
C4        C        0.28125        0.037037        0.274598        0        
C1        C        0.25        0.12963        0.274598        0        
C2        C        0.28125        0.185185        0.274598        0        
C3        C        0.25        0.203703        0.274598        0        
C4        C        0.28125        0.148148        0.274598        0        
C1        C        0.25        0.24074099999999998        0.274598        0        
C2        C        0.28125        0.296297        0.274598        0        
C3        C        0.25        0.314815        0.274598        0        
C4        C        0.28125        0.259259        0.274598        0        
C1        C        0.25        0.351852        0.274598        0        
C2        C        0.28125        0.407408        0.274598        0        
C3        C        0.25        0.42592500000000005        0.274598        0        
C4        C        0.28125        0.37037        0.274598        0        
C1        C        0.25        0.46296300000000007        0.274598        0        
C2        C        0.28125        0.518519        0.274598        0        
C3        C        0.25        0.537037        0.274598        0        
C4        C        0.28125        0.481481        0.274598        0        
C1        C        0.25        0.574075        0.274598        0        
C2        C        0.28125        0.62963        0.274598        0        
C3        C        0.25        0.648148        0.274598        0        
C4        C        0.28125        0.592592        0.274598        0        
C1        C        0.3125        0.018519        0.274598        0        
C2        C        0.34375        0.074075        0.274598        0        
C3        C        0.3125        0.092592        0.274598        0        
C4        C        0.34375        0.037037        0.274598        0        
C1        C        0.3125        0.12963        0.274598        0        
C2        C        0.34375        0.185185        0.274598        0        
C3        C        0.3125        0.203703        0.274598        0        
C4        C        0.34375        0.148148        0.274598        0        
C1        C        0.3125        0.24074099999999998        0.274598        0        
C2        C        0.34375        0.296297        0.274598        0        
C3        C        0.3125        0.314815        0.274598        0        
C4        C        0.34375        0.259259        0.274598        0        
C1        C        0.3125        0.351852        0.274598        0        
C2        C        0.34375        0.407408        0.274598        0        
C3        C        0.3125        0.42592500000000005        0.274598        0        
C4        C        0.34375        0.37037        0.274598        0        
C1        C        0.3125        0.46296300000000007        0.274598        0        
C2        C        0.34375        0.518519        0.274598        0        
C3        C        0.3125        0.537037        0.274598        0        
C4        C        0.34375        0.481481        0.274598        0        
C1        C        0.3125        0.574075        0.274598        0        
C2        C        0.34375        0.62963        0.274598        0        
C3        C        0.3125        0.648148        0.274598        0        
C4        C        0.34375        0.592592        0.274598        0        
C1        C        0.375        0.018519        0.274598        0        
C2        C        0.40625        0.074075        0.274598        0        
C3        C        0.375        0.092592        0.274598        0        
C4        C        0.40625        0.037037        0.274598        0        
C1        C        0.375        0.12963        0.274598        0        
C2        C        0.40625        0.185185        0.274598        0        
C3        C        0.375        0.203703        0.274598        0        
C4        C        0.40625        0.148148        0.274598        0        
C1        C        0.375        0.24074099999999998        0.274598        0        
C2        C        0.40625        0.296297        0.274598        0        
C3        C        0.375        0.314815        0.274598        0        
C4        C        0.40625        0.259259        0.274598        0        
C1        C        0.375        0.351852        0.274598        0        
C2        C        0.40625        0.407408        0.274598        0        
C3        C        0.375        0.42592500000000005        0.274598        0        
C4        C        0.40625        0.37037        0.274598        0        
C1        C        0.375        0.46296300000000007        0.274598        0        
C2        C        0.40625        0.518519        0.274598        0        
C3        C        0.375        0.537037        0.274598        0        
C4        C        0.40625        0.481481        0.274598        0        
C1        C        0.375        0.574075        0.274598        0        
C2        C        0.40625        0.62963        0.274598        0        
C3        C        0.375        0.648148        0.274598        0        
C4        C        0.40625        0.592592        0.274598        0        
C1        C        0.4375        0.018519        0.274598        0        
C2        C        0.46875        0.074075        0.274598        0        
C3        C        0.4375        0.092592        0.274598        0        
C4        C        0.46875        0.037037        0.274598        0        
C1        C        0.4375        0.12963        0.274598        0        
C2        C        0.46875        0.185185        0.274598        0        
C3        C        0.4375        0.203703        0.274598        0        
C4        C        0.46875        0.148148        0.274598        0        
C1        C        0.4375        0.24074099999999998        0.274598        0        
C2        C        0.46875        0.296297        0.274598        0        
C3        C        0.4375        0.314815        0.274598        0        
C4        C        0.46875        0.259259        0.274598        0        
C1        C        0.4375        0.351852        0.274598        0        
C2        C        0.46875        0.407408        0.274598        0        
C3        C        0.4375        0.42592500000000005        0.274598        0        
C4        C        0.46875        0.37037        0.274598        0        
C1        C        0.4375        0.46296300000000007        0.274598        0        
C2        C        0.46875        0.518519        0.274598        0        
C3        C        0.4375        0.537037        0.274598        0        
C4        C        0.46875        0.481481        0.274598        0        
C1        C        0.4375        0.574075        0.274598        0        
C2        C        0.46875        0.62963        0.274598        0        
C3        C        0.4375        0.648148        0.274598        0        
C4        C        0.46875        0.592592        0.274598        0        
C1        C        0.5        0.018519        0.274598        0        
C2        C        0.53125        0.074075        0.274598        0        
C3        C        0.5        0.092592        0.274598        0        
C4        C        0.53125        0.037037        0.274598        0        
C1        C        0.5        0.12963        0.274598        0        
C2        C        0.53125        0.185185        0.274598        0        
C3        C        0.5        0.203703        0.274598        0        
C4        C        0.53125        0.148148        0.274598        0        
C1        C        0.5        0.24074099999999998        0.274598        0        
C2        C        0.53125        0.296297        0.274598        0        
C3        C        0.5        0.314815        0.274598        0        
C4        C        0.53125        0.259259        0.274598        0        
C1        C        0.5        0.351852        0.274598        0        
C2        C        0.53125        0.407408        0.274598        0        
C3        C        0.5        0.42592500000000005        0.274598        0        
C4        C        0.53125        0.37037        0.274598        0        
C1        C        0.5        0.46296300000000007        0.274598        0        
C2        C        0.53125        0.518519        0.274598        0        
C3        C        0.5        0.537037        0.274598        0        
C4        C        0.53125        0.481481        0.274598        0        
C1        C        0.5        0.574075        0.274598        0        
C2        C        0.53125        0.62963        0.274598        0        
C3        C        0.5        0.648148        0.274598        0        
C4        C        0.53125        0.592592        0.274598        0        
C1        C        0.5625        0.018519        0.274598        0        
C2        C        0.59375        0.074075        0.274598        0        
C3        C        0.5625        0.092592        0.274598        0        
C4        C        0.59375        0.037037        0.274598        0        
C1        C        0.5625        0.12963        0.274598        0        
C2        C        0.59375        0.185185        0.274598        0        
C3        C        0.5625        0.203703        0.274598        0        
C4        C        0.59375        0.148148        0.274598        0        
C1        C        0.5625        0.24074099999999998        0.274598        0        
C2        C        0.59375        0.296297        0.274598        0        
C3        C        0.5625        0.314815        0.274598        0        
C4        C        0.59375        0.259259        0.274598        0        
C1        C        0.5625        0.351852        0.274598        0        
C2        C        0.59375        0.407408        0.274598        0        
C3        C        0.5625        0.42592500000000005        0.274598        0        
C4        C        0.59375        0.37037        0.274598        0        
C1        C        0.5625        0.46296300000000007        0.274598        0        
C2        C        0.59375        0.518519        0.274598        0        
C3        C        0.5625        0.537037        0.274598        0        
C4        C        0.59375        0.481481        0.274598        0        
C1        C        0.5625        0.574075        0.274598        0        
C2        C        0.59375        0.62963        0.274598        0        
C3        C        0.5625        0.648148        0.274598        0        
C4        C        0.59375        0.592592        0.274598        0        
C1        C        0.625        0.018519        0.274598        0        
C2        C        0.65625        0.074075        0.274598        0        
C3        C        0.625        0.092592        0.274598        0        
C4        C        0.65625        0.037037        0.274598        0        
C1        C        0.625        0.12963        0.274598        0        
C2        C        0.65625        0.185185        0.274598        0        
C3        C        0.625        0.203703        0.274598        0        
C4        C        0.65625        0.148148        0.274598        0        
C1        C        0.625        0.24074099999999998        0.274598        0        
C2        C        0.65625        0.296297        0.274598        0        
C3        C        0.625        0.314815        0.274598        0        
C4        C        0.65625        0.259259        0.274598        0        
C1        C        0.625        0.351852        0.274598        0        
C2        C        0.65625        0.407408        0.274598        0        
C3        C        0.625        0.42592500000000005        0.274598        0        
C4        C        0.65625        0.37037        0.274598        0        
C1        C        0.625        0.46296300000000007        0.274598        0        
C2        C        0.65625        0.518519        0.274598        0        
C3        C        0.625        0.537037        0.274598        0        
C4        C        0.65625        0.481481        0.274598        0        
C1        C        0.625        0.574075        0.274598        0        
C2        C        0.65625        0.62963        0.274598        0        
C3        C        0.625        0.648148        0.274598        0        
C4        C        0.65625        0.592592        0.274598        0        
C1        C        0.6875        0.018519        0.274598        0        
C2        C        0.71875        0.074075        0.274598        0        
C3        C        0.6875        0.092592        0.274598        0        
C4        C        0.71875        0.037037        0.274598        0        
C1        C        0.6875        0.12963        0.274598        0        
C2        C        0.71875        0.185185        0.274598        0        
C3        C        0.6875        0.203703        0.274598        0        
C4        C        0.71875        0.148148        0.274598        0        
C1        C        0.6875        0.24074099999999998        0.274598        0        
C2        C        0.71875        0.296297        0.274598        0        
C3        C        0.6875        0.314815        0.274598        0        
C4        C        0.71875        0.259259        0.274598        0        
C1        C        0.6875        0.351852        0.274598        0        
C2        C        0.71875        0.407408        0.274598        0        
C3        C        0.6875        0.42592500000000005        0.274598        0        
C4        C        0.71875        0.37037        0.274598        0        
C1        C        0.6875        0.46296300000000007        0.274598        0        
C2        C        0.71875        0.518519        0.274598        0        
C3        C        0.6875        0.537037        0.274598        0        
C4        C        0.71875        0.481481        0.274598        0        
C1        C        0.6875        0.574075        0.274598        0        
C2        C        0.71875        0.62963        0.274598        0        
C3        C        0.6875        0.648148        0.274598        0        
C4        C        0.71875        0.592592        0.274598        0        
C1        C        0.75        0.018519        0.274598        0        
C2        C        0.78125        0.074075        0.274598        0        
C3        C        0.75        0.092592        0.274598        0        
C4        C        0.78125        0.037037        0.274598        0        
C1        C        0.75        0.12963        0.274598        0        
C2        C        0.78125        0.185185        0.274598        0        
C3        C        0.75        0.203703        0.274598        0        
C4        C        0.78125        0.148148        0.274598        0        
C1        C        0.75        0.24074099999999998        0.274598        0        
C2        C        0.78125        0.296297        0.274598        0        
C3        C        0.75        0.314815        0.274598        0        
C4        C        0.78125        0.259259        0.274598        0        
C1        C        0.75        0.351852        0.274598        0        
C2        C        0.78125        0.407408        0.274598        0        
C3        C        0.75        0.42592500000000005        0.274598        0        
C4        C        0.78125        0.37037        0.274598        0        
C1        C        0.75        0.46296300000000007        0.274598        0        
C2        C        0.78125        0.518519        0.274598        0        
C3        C        0.75        0.537037        0.274598        0        
C4        C        0.78125        0.481481        0.274598        0        
C1        C        0.75        0.574075        0.274598        0        
C2        C        0.78125        0.62963        0.274598        0        
C3        C        0.75        0.648148        0.274598        0        
C4        C        0.78125        0.592592        0.274598        0        
C1        C        0.8125        0.018519        0.274598        0        
C2        C        0.84375        0.074075        0.274598        0        
C3        C        0.8125        0.092592        0.274598        0        
C4        C        0.84375        0.037037        0.274598        0        
C1        C        0.8125        0.12963        0.274598        0        
C2        C        0.84375        0.185185        0.274598        0        
C3        C        0.8125        0.203703        0.274598        0        
C4        C        0.84375        0.148148        0.274598        0        
C1        C        0.8125        0.24074099999999998        0.274598        0        
C2        C        0.84375        0.296297        0.274598        0        
C3        C        0.8125        0.314815        0.274598        0        
C4        C        0.84375        0.259259        0.274598        0        
C1        C        0.8125        0.351852        0.274598        0        
C2        C        0.84375        0.407408        0.274598        0        
C3        C        0.8125        0.42592500000000005        0.274598        0        
C4        C        0.84375        0.37037        0.274598        0        
C1        C        0.8125        0.46296300000000007        0.274598        0        
C2        C        0.84375        0.518519        0.274598        0        
C3        C        0.8125        0.537037        0.274598        0        
C4        C        0.84375        0.481481        0.274598        0        
C1        C        0.8125        0.574075        0.274598        0        
C2        C        0.84375        0.62963        0.274598        0        
C3        C        0.8125        0.648148        0.274598        0        
C4        C        0.84375        0.592592        0.274598        0        
C1        C        0.875        0.018519        0.274598        0        
C2        C        0.9062500000000001        0.074075        0.274598        0        
C3        C        0.875        0.092592        0.274598        0        
C4        C        0.9062500000000001        0.037037        0.274598        0        
C1        C        0.875        0.12963        0.274598        0        
C2        C        0.9062500000000001        0.185185        0.274598        0        
C3        C        0.875        0.203703        0.274598        0        
C4        C        0.9062500000000001        0.148148        0.274598        0        
C1        C        0.875        0.24074099999999998        0.274598        0        
C2        C        0.9062500000000001        0.296297        0.274598        0        
C3        C        0.875        0.314815        0.274598        0        
C4        C        0.9062500000000001        0.259259        0.274598        0        
C1        C        0.875        0.351852        0.274598        0        
C2        C        0.9062500000000001        0.407408        0.274598        0        
C3        C        0.875        0.42592500000000005        0.274598        0        
C4        C        0.9062500000000001        0.37037        0.274598        0        
C1        C        0.875        0.46296300000000007        0.274598        0        
C2        C        0.9062500000000001        0.518519        0.274598        0        
C3        C        0.875        0.537037        0.274598        0        
C4        C        0.9062500000000001        0.481481        0.274598        0        
C1        C        0.875        0.574075        0.274598        0        
C2        C        0.9062500000000001        0.62963        0.274598        0        
C3        C        0.875        0.648148        0.274598        0        
C4        C        0.9062500000000001        0.592592        0.274598        0        
C1        C        0.9375        0.018519        0.274598        0        
C2        C        0.9687500000000001        0.074075        0.274598        0        
C3        C        0.9375        0.092592        0.274598        0        
C4        C        0.9687500000000001        0.037037        0.274598        0        
C1        C        0.9375        0.12963        0.274598        0        
C2        C        0.9687500000000001        0.185185        0.274598        0        
C3        C        0.9375        0.203703        0.274598        0        
C4        C        0.9687500000000001        0.148148        0.274598        0        
C1        C        0.9375        0.24074099999999998        0.274598        0        
C2        C        0.9687500000000001        0.296297        0.274598        0        
C3        C        0.9375        0.314815        0.274598        0        
C4        C        0.9687500000000001        0.259259        0.274598        0        
C1        C        0.9375        0.351852        0.274598        0        
C2        C        0.9687500000000001        0.407408        0.274598        0        
C3        C        0.9375        0.42592500000000005        0.274598        0        
C4        C        0.9687500000000001        0.37037        0.274598        0        
C1        C        0.9375        0.46296300000000007        0.274598        0        
C2        C        0.9687500000000001        0.518519        0.274598        0        
C3        C        0.9375        0.537037        0.274598        0        
C4        C        0.9687500000000001        0.481481        0.274598        0        
C1        C        0.9375        0.574075        0.274598        0        
C2        C        0.9687500000000001        0.62963        0.274598        0        
C3        C        0.9375        0.648148        0.274598        0        
C4        C        0.9687500000000001        0.592592        0.274598        0        
C1        C        0.0        0.685186        0.274598        0        
C1        C        0.0625        0.685186        0.274598        0        
C1        C        0.125        0.685186        0.274598        0        
C1        C        0.1875        0.685186        0.274598        0        
C1        C        0.25        0.685186        0.274598        0        
C1        C        0.3125        0.685186        0.274598        0        
C1        C        0.375        0.685186        0.274598        0        
C1        C        0.4375        0.685186        0.274598        0        
C1        C        0.5        0.685186        0.274598        0        
C1        C        0.5625        0.685186        0.274598        0        
C1        C        0.625        0.685186        0.274598        0        
C1        C        0.6875        0.685186        0.274598        0        
C1        C        0.75        0.685186        0.274598        0        
C1        C        0.8125        0.685186        0.274598        0        
C1        C        0.875        0.685186        0.274598        0        
C1        C        0.9375        0.685186        0.274598        0        
C2        C        0.03125        0.740741        0.274598        0        
C2        C        0.09375        0.740741        0.274598        0        
C2        C        0.15625        0.740741        0.274598        0        
C2        C        0.21875        0.740741        0.274598        0        
C2        C        0.28125        0.740741        0.274598        0        
C2        C        0.34375        0.740741        0.274598        0        
C2        C        0.40625        0.740741        0.274598        0        
C2        C        0.46875        0.740741        0.274598        0        
C2        C        0.53125        0.740741        0.274598        0        
C2        C        0.59375        0.740741        0.274598        0        
C2        C        0.65625        0.740741        0.274598        0        
C2        C        0.71875        0.740741        0.274598        0        
C2        C        0.78125        0.740741        0.274598        0        
C2        C        0.84375        0.740741        0.274598        0        
C2        C        0.9062500000000001        0.740741        0.274598        0        
C2        C        0.9687500000000001        0.740741        0.274598        0        
C3        C        0.0        0.759259        0.274598        0        
C3        C        0.0625        0.759259        0.274598        0        
C3        C        0.125        0.759259        0.274598        0        
C3        C        0.1875        0.759259        0.274598        0        
C3        C        0.25        0.759259        0.274598        0        
C3        C        0.3125        0.759259        0.274598        0        
C3        C        0.375        0.759259        0.274598        0        
C3        C        0.4375        0.759259        0.274598        0        
C3        C        0.5        0.759259        0.274598        0        
C3        C        0.5625        0.759259        0.274598        0        
C3        C        0.625        0.759259        0.274598        0        
C3        C        0.6875        0.759259        0.274598        0        
C3        C        0.75        0.759259        0.274598        0        
C3        C        0.8125        0.759259        0.274598        0        
C3        C        0.875        0.759259        0.274598        0        
C3        C        0.9375        0.759259        0.274598        0        
C4        C        0.03125        0.703703        0.274598        0        
C4        C        0.09375        0.703703        0.274598        0        
C4        C        0.15625        0.703703        0.274598        0        
C4        C        0.21875        0.703703        0.274598        0        
C4        C        0.28125        0.703703        0.274598        0        
C4        C        0.34375        0.703703        0.274598        0        
C4        C        0.40625        0.703703        0.274598        0        
C4        C        0.46875        0.703703        0.274598        0        
C4        C        0.53125        0.703703        0.274598        0        
C4        C        0.59375        0.703703        0.274598        0        
C4        C        0.65625        0.703703        0.274598        0        
C4        C        0.71875        0.703703        0.274598        0        
C4        C        0.78125        0.703703        0.274598        0        
C4        C        0.84375        0.703703        0.274598        0        
C4        C        0.9062500000000001        0.703703        0.274598        0        
C4        C        0.9687500000000001        0.703703        0.274598        0        
C1        C        0.0        0.796297        0.274598        0        
C1        C        0.0625        0.796297        0.274598        0        
C1        C        0.125        0.796297        0.274598        0        
C1        C        0.1875        0.796297        0.274598        0        
C1        C        0.25        0.796297        0.274598        0        
C1        C        0.3125        0.796297        0.274598        0        
C1        C        0.375        0.796297        0.274598        0        
C1        C        0.4375        0.796297        0.274598        0        
C1        C        0.5        0.796297        0.274598        0        
C1        C        0.5625        0.796297        0.274598        0        
C1        C        0.625        0.796297        0.274598        0        
C1        C        0.6875        0.796297        0.274598        0        
C1        C        0.75        0.796297        0.274598        0        
C1        C        0.8125        0.796297        0.274598        0        
C1        C        0.875        0.796297        0.274598        0        
C1        C        0.9375        0.796297        0.274598        0        
C2        C        0.03125        0.851852        0.274598        0        
C2        C        0.09375        0.851852        0.274598        0        
C2        C        0.15625        0.851852        0.274598        0        
C2        C        0.21875        0.851852        0.274598        0        
C2        C        0.28125        0.851852        0.274598        0        
C2        C        0.34375        0.851852        0.274598        0        
C2        C        0.40625        0.851852        0.274598        0        
C2        C        0.46875        0.851852        0.274598        0        
C2        C        0.53125        0.851852        0.274598        0        
C2        C        0.59375        0.851852        0.274598        0        
C2        C        0.65625        0.851852        0.274598        0        
C2        C        0.71875        0.851852        0.274598        0        
C2        C        0.78125        0.851852        0.274598        0        
C2        C        0.84375        0.851852        0.274598        0        
C2        C        0.9062500000000001        0.851852        0.274598        0        
C2        C        0.9687500000000001        0.851852        0.274598        0        
C3        C        0.0        0.87037        0.274598        0        
C3        C        0.0625        0.87037        0.274598        0        
C3        C        0.125        0.87037        0.274598        0        
C3        C        0.1875        0.87037        0.274598        0        
C3        C        0.25        0.87037        0.274598        0        
C3        C        0.3125        0.87037        0.274598        0        
C3        C        0.375        0.87037        0.274598        0        
C3        C        0.4375        0.87037        0.274598        0        
C3        C        0.5        0.87037        0.274598        0        
C3        C        0.5625        0.87037        0.274598        0        
C3        C        0.625        0.87037        0.274598        0        
C3        C        0.6875        0.87037        0.274598        0        
C3        C        0.75        0.87037        0.274598        0        
C3        C        0.8125        0.87037        0.274598        0        
C3        C        0.875        0.87037        0.274598        0        
C3        C        0.9375        0.87037        0.274598        0        
C4        C        0.03125        0.814814        0.274598        0        
C4        C        0.09375        0.814814        0.274598        0        
C4        C        0.15625        0.814814        0.274598        0        
C4        C        0.21875        0.814814        0.274598        0        
C4        C        0.28125        0.814814        0.274598        0        
C4        C        0.34375        0.814814        0.274598        0        
C4        C        0.40625        0.814814        0.274598        0        
C4        C        0.46875        0.814814        0.274598        0        
C4        C        0.53125        0.814814        0.274598        0        
C4        C        0.59375        0.814814        0.274598        0        
C4        C        0.65625        0.814814        0.274598        0        
C4        C        0.71875        0.814814        0.274598        0        
C4        C        0.78125        0.814814        0.274598        0        
C4        C        0.84375        0.814814        0.274598        0        
C4        C        0.9062500000000001        0.814814        0.274598        0        
C4        C        0.9687500000000001        0.814814        0.274598        0        
C1        C        0.0        0.907408        0.274598        0        
C1        C        0.0625        0.907408        0.274598        0        
C1        C        0.125        0.907408        0.274598        0        
C1        C        0.1875        0.907408        0.274598        0        
C1        C        0.25        0.907408        0.274598        0        
C1        C        0.3125        0.907408        0.274598        0        
C1        C        0.375        0.907408        0.274598        0        
C1        C        0.4375        0.907408        0.274598        0        
C1        C        0.5        0.907408        0.274598        0        
C1        C        0.5625        0.907408        0.274598        0        
C1        C        0.625        0.907408        0.274598        0        
C1        C        0.6875        0.907408        0.274598        0        
C1        C        0.75        0.907408        0.274598        0        
C1        C        0.8125        0.907408        0.274598        0        
C1        C        0.875        0.907408        0.274598        0        
C1        C        0.9375        0.907408        0.274598        0        
C2        C        0.03125        0.962963        0.274598        0        
C2        C        0.09375        0.962963        0.274598        0        
C2        C        0.15625        0.962963        0.274598        0        
C2        C        0.21875        0.962963        0.274598        0        
C2        C        0.28125        0.962963        0.274598        0        
C2        C        0.34375        0.962963        0.274598        0        
C2        C        0.40625        0.962963        0.274598        0        
C2        C        0.46875        0.962963        0.274598        0        
C2        C        0.53125        0.962963        0.274598        0        
C2        C        0.59375        0.962963        0.274598        0        
C2        C        0.65625        0.962963        0.274598        0        
C2        C        0.71875        0.962963        0.274598        0        
C2        C        0.78125        0.962963        0.274598        0        
C2        C        0.84375        0.962963        0.274598        0        
C2        C        0.9062500000000001        0.962963        0.274598        0        
C2        C        0.9687500000000001        0.962963        0.274598        0        
C3        C        0.0        0.9814809999999999        0.274598        0        
C3        C        0.0625        0.9814809999999999        0.274598        0        
C3        C        0.125        0.9814809999999999        0.274598        0        
C3        C        0.1875        0.9814809999999999        0.274598        0        
C3        C        0.25        0.9814809999999999        0.274598        0        
C3        C        0.3125        0.9814809999999999        0.274598        0        
C3        C        0.375        0.9814809999999999        0.274598        0        
C3        C        0.4375        0.9814809999999999        0.274598        0        
C3        C        0.5        0.9814809999999999        0.274598        0        
C3        C        0.5625        0.9814809999999999        0.274598        0        
C3        C        0.625        0.9814809999999999        0.274598        0        
C3        C        0.6875        0.9814809999999999        0.274598        0        
C3        C        0.75        0.9814809999999999        0.274598        0        
C3        C        0.8125        0.9814809999999999        0.274598        0        
C3        C        0.875        0.9814809999999999        0.274598        0        
C3        C        0.9375        0.9814809999999999        0.274598        0        
C4        C        0.03125        0.925925        0.274598        0        
C4        C        0.09375        0.925925        0.274598        0        
C4        C        0.15625        0.925925        0.274598        0        
C4        C        0.21875        0.925925        0.274598        0        
C4        C        0.28125        0.925925        0.274598        0        
C4        C        0.34375        0.925925        0.274598        0        
C4        C        0.40625        0.925925        0.274598        0        
C4        C        0.46875        0.925925        0.274598        0        
C4        C        0.53125        0.925925        0.274598        0        
C4        C        0.59375        0.925925        0.274598        0        
C4        C        0.65625        0.925925        0.274598        0        
C4        C        0.71875        0.925925        0.274598        0        
C4        C        0.78125        0.925925        0.274598        0        
C4        C        0.84375        0.925925        0.274598        0        
C4        C        0.9062500000000001        0.925925        0.274598        0        
C4        C        0.9687500000000001        0.925925        0.274598        0        
C_FG        C        0.0        0.018519        0.334526        0.08        
C2        C        0.03125        0.074075        0.334526        0        
C3        C        0.0        0.092592        0.334526        0        
C4        C        0.03125        0.037037        0.334526        0        
C1        C        0.0        0.12963        0.334526        0        
C2        C        0.03125        0.185185        0.334526        0        
C_FG        C        0.0        0.203703        0.334526        0.08        
C4        C        0.03125        0.148148        0.334526        0        
C1        C        0.0        0.24074099999999998        0.334526        0        
C2        C        0.03125        0.296297        0.334526        0        
C3        C        0.0        0.314815        0.334526        0        
C4        C        0.03125        0.259259        0.334526        0        
C_FG        C        0.0        0.351852        0.334526        0.08        
C2        C        0.03125        0.407408        0.334526        0        
C3        C        0.0        0.42592500000000005        0.334526        0        
C4        C        0.03125        0.37037        0.334526        0        
C1        C        0.0        0.46296300000000007        0.334526        0        
C2        C        0.03125        0.518519        0.334526        0        
C_FG        C        0.0        0.537037        0.334526        0.08        
C4        C        0.03125        0.481481        0.334526        0        
C1        C        0.0        0.574075        0.334526        0        
C2        C        0.03125        0.62963        0.334526        0        
C3        C        0.0        0.648148        0.334526        0        
C4        C        0.03125        0.592592        0.334526        0        
C1        C        0.0625        0.018519        0.334526        0        
C2        C        0.09375        0.074075        0.334526        0        
C3        C        0.0625        0.092592        0.334526        0        
C4        C        0.09375        0.037037        0.334526        0        
C1        C        0.0625        0.12963        0.334526        0        
C2        C        0.09375        0.185185        0.334526        0        
C3        C        0.0625        0.203703        0.334526        0        
C4        C        0.09375        0.148148        0.334526        0        
C1        C        0.0625        0.24074099999999998        0.334526        0        
C2        C        0.09375        0.296297        0.334526        0        
C3        C        0.0625        0.314815        0.334526        0        
C4        C        0.09375        0.259259        0.334526        0        
C1        C        0.0625        0.351852        0.334526        0        
C2        C        0.09375        0.407408        0.334526        0        
C3        C        0.0625        0.42592500000000005        0.334526        0        
C4        C        0.09375        0.37037        0.334526        0        
C1        C        0.0625        0.46296300000000007        0.334526        0        
C2        C        0.09375        0.518519        0.334526        0        
C3        C        0.0625        0.537037        0.334526        0        
C4        C        0.09375        0.481481        0.334526        0        
C1        C        0.0625        0.574075        0.334526        0        
C2        C        0.09375        0.62963        0.334526        0        
C3        C        0.0625        0.648148        0.334526        0        
C4        C        0.09375        0.592592        0.334526        0        
C1        C        0.125        0.018519        0.334526        0        
C2        C        0.15625        0.074075        0.334526        0        
C3        C        0.125        0.092592        0.334526        0        
C4        C        0.15625        0.037037        0.334526        0        
C1        C        0.125        0.12963        0.334526        0        
C2        C        0.15625        0.185185        0.334526        0        
C3        C        0.125        0.203703        0.334526        0        
C4        C        0.15625        0.148148        0.334526        0        
C1        C        0.125        0.24074099999999998        0.334526        0        
C2        C        0.15625        0.296297        0.334526        0        
C3        C        0.125        0.314815        0.334526        0        
C4        C        0.15625        0.259259        0.334526        0        
C1        C        0.125        0.351852        0.334526        0        
C2        C        0.15625        0.407408        0.334526        0        
C3        C        0.125        0.42592500000000005        0.334526        0        
C4        C        0.15625        0.37037        0.334526        0        
C1        C        0.125        0.46296300000000007        0.334526        0        
C2        C        0.15625        0.518519        0.334526        0        
C3        C        0.125        0.537037        0.334526        0        
C4        C        0.15625        0.481481        0.334526        0        
C1        C        0.125        0.574075        0.334526        0        
C2        C        0.15625        0.62963        0.334526        0        
C3        C        0.125        0.648148        0.334526        0        
C4        C        0.15625        0.592592        0.334526        0        
C1        C        0.1875        0.018519        0.334526        0        
C2        C        0.21875        0.074075        0.334526        0        
C3        C        0.1875        0.092592        0.334526        0        
C4        C        0.21875        0.037037        0.334526        0        
C1        C        0.1875        0.12963        0.334526        0        
C2        C        0.21875        0.185185        0.334526        0        
C3        C        0.1875        0.203703        0.334526        0        
C4        C        0.21875        0.148148        0.334526        0        
C1        C        0.1875        0.24074099999999998        0.334526        0        
C2        C        0.21875        0.296297        0.334526        0        
C3        C        0.1875        0.314815        0.334526        0        
C4        C        0.21875        0.259259        0.334526        0        
C1        C        0.1875        0.351852        0.334526        0        
C2        C        0.21875        0.407408        0.334526        0        
C3        C        0.1875        0.42592500000000005        0.334526        0        
C4        C        0.21875        0.37037        0.334526        0        
C1        C        0.1875        0.46296300000000007        0.334526        0        
C2        C        0.21875        0.518519        0.334526        0        
C3        C        0.1875        0.537037        0.334526        0        
C4        C        0.21875        0.481481        0.334526        0        
C1        C        0.1875        0.574075        0.334526        0        
C2        C        0.21875        0.62963        0.334526        0        
C3        C        0.1875        0.648148        0.334526        0        
C4        C        0.21875        0.592592        0.334526        0        
C_FG        C        0.25        0.018519        0.334526        0.08        
C2        C        0.28125        0.074075        0.334526        0        
C3        C        0.25        0.092592        0.334526        0        
C4        C        0.28125        0.037037        0.334526        0        
C1        C        0.25        0.12963        0.334526        0        
C2        C        0.28125        0.185185        0.334526        0        
C_FG        C        0.25        0.203703        0.334526        0.08        
C4        C        0.28125        0.148148        0.334526        0        
C1        C        0.25        0.24074099999999998        0.334526        0        
C2        C        0.28125        0.296297        0.334526        0        
C3        C        0.25        0.314815        0.334526        0        
C4        C        0.28125        0.259259        0.334526        0        
C_FG        C        0.25        0.351852        0.334526        0.08        
C2        C        0.28125        0.407408        0.334526        0        
C3        C        0.25        0.42592500000000005        0.334526        0        
C4        C        0.28125        0.37037        0.334526        0        
C1        C        0.25        0.46296300000000007        0.334526        0        
C2        C        0.28125        0.518519        0.334526        0        
C_FG        C        0.25        0.537037        0.334526        0.08        
C4        C        0.28125        0.481481        0.334526        0        
C1        C        0.25        0.574075        0.334526        0        
C2        C        0.28125        0.62963        0.334526        0        
C3        C        0.25        0.648148        0.334526        0        
C4        C        0.28125        0.592592        0.334526        0        
C1        C        0.3125        0.018519        0.334526        0        
C2        C        0.34375        0.074075        0.334526        0        
C3        C        0.3125        0.092592        0.334526        0        
C4        C        0.34375        0.037037        0.334526        0        
C1        C        0.3125        0.12963        0.334526        0        
C2        C        0.34375        0.185185        0.334526        0        
C3        C        0.3125        0.203703        0.334526        0        
C4        C        0.34375        0.148148        0.334526        0        
C1        C        0.3125        0.24074099999999998        0.334526        0        
C2        C        0.34375        0.296297        0.334526        0        
C3        C        0.3125        0.314815        0.334526        0        
C4        C        0.34375        0.259259        0.334526        0        
C1        C        0.3125        0.351852        0.334526        0        
C2        C        0.34375        0.407408        0.334526        0        
C3        C        0.3125        0.42592500000000005        0.334526        0        
C4        C        0.34375        0.37037        0.334526        0        
C1        C        0.3125        0.46296300000000007        0.334526        0        
C2        C        0.34375        0.518519        0.334526        0        
C3        C        0.3125        0.537037        0.334526        0        
C4        C        0.34375        0.481481        0.334526        0        
C1        C        0.3125        0.574075        0.334526        0        
C2        C        0.34375        0.62963        0.334526        0        
C3        C        0.3125        0.648148        0.334526        0        
C4        C        0.34375        0.592592        0.334526        0        
C1        C        0.375        0.018519        0.334526        0        
C2        C        0.40625        0.074075        0.334526        0        
C3        C        0.375        0.092592        0.334526        0        
C4        C        0.40625        0.037037        0.334526        0        
C1        C        0.375        0.12963        0.334526        0        
C2        C        0.40625        0.185185        0.334526        0        
C3        C        0.375        0.203703        0.334526        0        
C4        C        0.40625        0.148148        0.334526        0        
C1        C        0.375        0.24074099999999998        0.334526        0        
C2        C        0.40625        0.296297        0.334526        0        
C3        C        0.375        0.314815        0.334526        0        
C4        C        0.40625        0.259259        0.334526        0        
C1        C        0.375        0.351852        0.334526        0        
C2        C        0.40625        0.407408        0.334526        0        
C3        C        0.375        0.42592500000000005        0.334526        0        
C4        C        0.40625        0.37037        0.334526        0        
C1        C        0.375        0.46296300000000007        0.334526        0        
C2        C        0.40625        0.518519        0.334526        0        
C3        C        0.375        0.537037        0.334526        0        
C4        C        0.40625        0.481481        0.334526        0        
C1        C        0.375        0.574075        0.334526        0        
C2        C        0.40625        0.62963        0.334526        0        
C3        C        0.375        0.648148        0.334526        0        
C4        C        0.40625        0.592592        0.334526        0        
C1        C        0.4375        0.018519        0.334526        0        
C2        C        0.46875        0.074075        0.334526        0        
C3        C        0.4375        0.092592        0.334526        0        
C4        C        0.46875        0.037037        0.334526        0        
C1        C        0.4375        0.12963        0.334526        0        
C2        C        0.46875        0.185185        0.334526        0        
C3        C        0.4375        0.203703        0.334526        0        
C4        C        0.46875        0.148148        0.334526        0        
C1        C        0.4375        0.24074099999999998        0.334526        0        
C2        C        0.46875        0.296297        0.334526        0        
C3        C        0.4375        0.314815        0.334526        0        
C4        C        0.46875        0.259259        0.334526        0        
C1        C        0.4375        0.351852        0.334526        0        
C2        C        0.46875        0.407408        0.334526        0        
C3        C        0.4375        0.42592500000000005        0.334526        0        
C4        C        0.46875        0.37037        0.334526        0        
C1        C        0.4375        0.46296300000000007        0.334526        0        
C2        C        0.46875        0.518519        0.334526        0        
C3        C        0.4375        0.537037        0.334526        0        
C4        C        0.46875        0.481481        0.334526        0        
C1        C        0.4375        0.574075        0.334526        0        
C2        C        0.46875        0.62963        0.334526        0        
C3        C        0.4375        0.648148        0.334526        0        
C4        C        0.46875        0.592592        0.334526        0        
C_FG        C        0.5        0.018519        0.334526        0.08        
C2        C        0.53125        0.074075        0.334526        0        
C3        C        0.5        0.092592        0.334526        0        
C4        C        0.53125        0.037037        0.334526        0        
C1        C        0.5        0.12963        0.334526        0        
C2        C        0.53125        0.185185        0.334526        0        
C_FG        C        0.5        0.203703        0.334526        0.08        
C4        C        0.53125        0.148148        0.334526        0        
C1        C        0.5        0.24074099999999998        0.334526        0        
C2        C        0.53125        0.296297        0.334526        0        
C3        C        0.5        0.314815        0.334526        0        
C4        C        0.53125        0.259259        0.334526        0        
C_FG        C        0.5        0.351852        0.334526        0.08        
C2        C        0.53125        0.407408        0.334526        0        
C3        C        0.5        0.42592500000000005        0.334526        0        
C4        C        0.53125        0.37037        0.334526        0        
C1        C        0.5        0.46296300000000007        0.334526        0        
C2        C        0.53125        0.518519        0.334526        0        
C_FG        C        0.5        0.537037        0.334526        0.08        
C4        C        0.53125        0.481481        0.334526        0        
C1        C        0.5        0.574075        0.334526        0        
C2        C        0.53125        0.62963        0.334526        0        
C3        C        0.5        0.648148        0.334526        0        
C4        C        0.53125        0.592592        0.334526        0        
C1        C        0.5625        0.018519        0.334526        0        
C2        C        0.59375        0.074075        0.334526        0        
C3        C        0.5625        0.092592        0.334526        0        
C4        C        0.59375        0.037037        0.334526        0        
C1        C        0.5625        0.12963        0.334526        0        
C2        C        0.59375        0.185185        0.334526        0        
C3        C        0.5625        0.203703        0.334526        0        
C4        C        0.59375        0.148148        0.334526        0        
C1        C        0.5625        0.24074099999999998        0.334526        0        
C2        C        0.59375        0.296297        0.334526        0        
C3        C        0.5625        0.314815        0.334526        0        
C4        C        0.59375        0.259259        0.334526        0        
C1        C        0.5625        0.351852        0.334526        0        
C2        C        0.59375        0.407408        0.334526        0        
C3        C        0.5625        0.42592500000000005        0.334526        0        
C4        C        0.59375        0.37037        0.334526        0        
C1        C        0.5625        0.46296300000000007        0.334526        0        
C2        C        0.59375        0.518519        0.334526        0        
C3        C        0.5625        0.537037        0.334526        0        
C4        C        0.59375        0.481481        0.334526        0        
C1        C        0.5625        0.574075        0.334526        0        
C2        C        0.59375        0.62963        0.334526        0        
C3        C        0.5625        0.648148        0.334526        0        
C4        C        0.59375        0.592592        0.334526        0        
C1        C        0.625        0.018519        0.334526        0        
C2        C        0.65625        0.074075        0.334526        0        
C3        C        0.625        0.092592        0.334526        0        
C4        C        0.65625        0.037037        0.334526        0        
C1        C        0.625        0.12963        0.334526        0        
C2        C        0.65625        0.185185        0.334526        0        
C3        C        0.625        0.203703        0.334526        0        
C4        C        0.65625        0.148148        0.334526        0        
C1        C        0.625        0.24074099999999998        0.334526        0        
C2        C        0.65625        0.296297        0.334526        0        
C3        C        0.625        0.314815        0.334526        0        
C4        C        0.65625        0.259259        0.334526        0        
C1        C        0.625        0.351852        0.334526        0        
C2        C        0.65625        0.407408        0.334526        0        
C3        C        0.625        0.42592500000000005        0.334526        0        
C4        C        0.65625        0.37037        0.334526        0        
C1        C        0.625        0.46296300000000007        0.334526        0        
C2        C        0.65625        0.518519        0.334526        0        
C3        C        0.625        0.537037        0.334526        0        
C4        C        0.65625        0.481481        0.334526        0        
C1        C        0.625        0.574075        0.334526        0        
C2        C        0.65625        0.62963        0.334526        0        
C3        C        0.625        0.648148        0.334526        0        
C4        C        0.65625        0.592592        0.334526        0        
C1        C        0.6875        0.018519        0.334526        0        
C2        C        0.71875        0.074075        0.334526        0        
C3        C        0.6875        0.092592        0.334526        0        
C4        C        0.71875        0.037037        0.334526        0        
C1        C        0.6875        0.12963        0.334526        0        
C2        C        0.71875        0.185185        0.334526        0        
C3        C        0.6875        0.203703        0.334526        0        
C4        C        0.71875        0.148148        0.334526        0        
C1        C        0.6875        0.24074099999999998        0.334526        0        
C2        C        0.71875        0.296297        0.334526        0        
C3        C        0.6875        0.314815        0.334526        0        
C4        C        0.71875        0.259259        0.334526        0        
C1        C        0.6875        0.351852        0.334526        0        
C2        C        0.71875        0.407408        0.334526        0        
C3        C        0.6875        0.42592500000000005        0.334526        0        
C4        C        0.71875        0.37037        0.334526        0        
C1        C        0.6875        0.46296300000000007        0.334526        0        
C2        C        0.71875        0.518519        0.334526        0        
C3        C        0.6875        0.537037        0.334526        0        
C4        C        0.71875        0.481481        0.334526        0        
C1        C        0.6875        0.574075        0.334526        0        
C2        C        0.71875        0.62963        0.334526        0        
C3        C        0.6875        0.648148        0.334526        0        
C4        C        0.71875        0.592592        0.334526        0        
C_FG        C        0.75        0.018519        0.334526        0.08        
C2        C        0.78125        0.074075        0.334526        0        
C3        C        0.75        0.092592        0.334526        0        
C4        C        0.78125        0.037037        0.334526        0        
C1        C        0.75        0.12963        0.334526        0        
C2        C        0.78125        0.185185        0.334526        0        
C_FG        C        0.75        0.203703        0.334526        0.08        
C4        C        0.78125        0.148148        0.334526        0        
C1        C        0.75        0.24074099999999998        0.334526        0        
C2        C        0.78125        0.296297        0.334526        0        
C3        C        0.75        0.314815        0.334526        0        
C4        C        0.78125        0.259259        0.334526        0        
C_FG        C        0.75        0.351852        0.334526        0.08        
C2        C        0.78125        0.407408        0.334526        0        
C3        C        0.75        0.42592500000000005        0.334526        0        
C4        C        0.78125        0.37037        0.334526        0        
C1        C        0.75        0.46296300000000007        0.334526        0        
C2        C        0.78125        0.518519        0.334526        0        
C_FG        C        0.75        0.537037        0.334526        0.08        
C4        C        0.78125        0.481481        0.334526        0        
C1        C        0.75        0.574075        0.334526        0        
C2        C        0.78125        0.62963        0.334526        0        
C3        C        0.75        0.648148        0.334526        0        
C4        C        0.78125        0.592592        0.334526        0        
C1        C        0.8125        0.018519        0.334526        0        
C2        C        0.84375        0.074075        0.334526        0        
C3        C        0.8125        0.092592        0.334526        0        
C4        C        0.84375        0.037037        0.334526        0        
C1        C        0.8125        0.12963        0.334526        0        
C2        C        0.84375        0.185185        0.334526        0        
C3        C        0.8125        0.203703        0.334526        0        
C4        C        0.84375        0.148148        0.334526        0        
C1        C        0.8125        0.24074099999999998        0.334526        0        
C2        C        0.84375        0.296297        0.334526        0        
C3        C        0.8125        0.314815        0.334526        0        
C4        C        0.84375        0.259259        0.334526        0        
C1        C        0.8125        0.351852        0.334526        0        
C2        C        0.84375        0.407408        0.334526        0        
C3        C        0.8125        0.42592500000000005        0.334526        0        
C4        C        0.84375        0.37037        0.334526        0        
C1        C        0.8125        0.46296300000000007        0.334526        0        
C2        C        0.84375        0.518519        0.334526        0        
C3        C        0.8125        0.537037        0.334526        0        
C4        C        0.84375        0.481481        0.334526        0        
C1        C        0.8125        0.574075        0.334526        0        
C2        C        0.84375        0.62963        0.334526        0        
C3        C        0.8125        0.648148        0.334526        0        
C4        C        0.84375        0.592592        0.334526        0        
C1        C        0.875        0.018519        0.334526        0        
C2        C        0.9062500000000001        0.074075        0.334526        0        
C3        C        0.875        0.092592        0.334526        0        
C4        C        0.9062500000000001        0.037037        0.334526        0        
C1        C        0.875        0.12963        0.334526        0        
C2        C        0.9062500000000001        0.185185        0.334526        0        
C3        C        0.875        0.203703        0.334526        0        
C4        C        0.9062500000000001        0.148148        0.334526        0        
C1        C        0.875        0.24074099999999998        0.334526        0        
C2        C        0.9062500000000001        0.296297        0.334526        0        
C3        C        0.875        0.314815        0.334526        0        
C4        C        0.9062500000000001        0.259259        0.334526        0        
C1        C        0.875        0.351852        0.334526        0        
C2        C        0.9062500000000001        0.407408        0.334526        0        
C3        C        0.875        0.42592500000000005        0.334526        0        
C4        C        0.9062500000000001        0.37037        0.334526        0        
C1        C        0.875        0.46296300000000007        0.334526        0        
C2        C        0.9062500000000001        0.518519        0.334526        0        
C3        C        0.875        0.537037        0.334526        0        
C4        C        0.9062500000000001        0.481481        0.334526        0        
C1        C        0.875        0.574075        0.334526        0        
C2        C        0.9062500000000001        0.62963        0.334526        0        
C3        C        0.875        0.648148        0.334526        0        
C4        C        0.9062500000000001        0.592592        0.334526        0        
C1        C        0.9375        0.018519        0.334526        0        
C2        C        0.9687500000000001        0.074075        0.334526        0        
C3        C        0.9375        0.092592        0.334526        0        
C4        C        0.9687500000000001        0.037037        0.334526        0        
C1        C        0.9375        0.12963        0.334526        0        
C2        C        0.9687500000000001        0.185185        0.334526        0        
C3        C        0.9375        0.203703        0.334526        0        
C4        C        0.9687500000000001        0.148148        0.334526        0        
C1        C        0.9375        0.24074099999999998        0.334526        0        
C2        C        0.9687500000000001        0.296297        0.334526        0        
C3        C        0.9375        0.314815        0.334526        0        
C4        C        0.9687500000000001        0.259259        0.334526        0        
C1        C        0.9375        0.351852        0.334526        0        
C2        C        0.9687500000000001        0.407408        0.334526        0        
C3        C        0.9375        0.42592500000000005        0.334526        0        
C4        C        0.9687500000000001        0.37037        0.334526        0        
C1        C        0.9375        0.46296300000000007        0.334526        0        
C2        C        0.9687500000000001        0.518519        0.334526        0        
C3        C        0.9375        0.537037        0.334526        0        
C4        C        0.9687500000000001        0.481481        0.334526        0        
C1        C        0.9375        0.574075        0.334526        0        
C2        C        0.9687500000000001        0.62963        0.334526        0        
C3        C        0.9375        0.648148        0.334526        0        
C4        C        0.9687500000000001        0.592592        0.334526        0        
C_FG        C        0.0        0.685186        0.334526        0.08        
C1        C        0.0625        0.685186        0.334526        0        
C1        C        0.125        0.685186        0.334526        0        
C1        C        0.1875        0.685186        0.334526        0        
C_FG        C        0.25        0.685186        0.334526        0.08        
C1        C        0.3125        0.685186        0.334526        0        
C1        C        0.375        0.685186        0.334526        0        
C1        C        0.4375        0.685186        0.334526        0        
C_FG        C        0.5        0.685186        0.334526        0.08        
C1        C        0.5625        0.685186        0.334526        0        
C1        C        0.625        0.685186        0.334526        0        
C1        C        0.6875        0.685186        0.334526        0        
C_FG        C        0.75        0.685186        0.334526        0.08        
C1        C        0.8125        0.685186        0.334526        0        
C1        C        0.875        0.685186        0.334526        0        
C1        C        0.9375        0.685186        0.334526        0        
C2        C        0.03125        0.740741        0.334526        0        
C2        C        0.09375        0.740741        0.334526        0        
C2        C        0.15625        0.740741        0.334526        0        
C2        C        0.21875        0.740741        0.334526        0        
C2        C        0.28125        0.740741        0.334526        0        
C2        C        0.34375        0.740741        0.334526        0        
C2        C        0.40625        0.740741        0.334526        0        
C2        C        0.46875        0.740741        0.334526        0        
C2        C        0.53125        0.740741        0.334526        0        
C2        C        0.59375        0.740741        0.334526        0        
C2        C        0.65625        0.740741        0.334526        0        
C2        C        0.71875        0.740741        0.334526        0        
C2        C        0.78125        0.740741        0.334526        0        
C2        C        0.84375        0.740741        0.334526        0        
C2        C        0.9062500000000001        0.740741        0.334526        0        
C2        C        0.9687500000000001        0.740741        0.334526        0        
C3        C        0.0        0.759259        0.334526        0        
C3        C        0.0625        0.759259        0.334526        0        
C3        C        0.125        0.759259        0.334526        0        
C3        C        0.1875        0.759259        0.334526        0        
C3        C        0.25        0.759259        0.334526        0        
C3        C        0.3125        0.759259        0.334526        0        
C3        C        0.375        0.759259        0.334526        0        
C3        C        0.4375        0.759259        0.334526        0        
C3        C        0.5        0.759259        0.334526        0        
C3        C        0.5625        0.759259        0.334526        0        
C3        C        0.625        0.759259        0.334526        0        
C3        C        0.6875        0.759259        0.334526        0        
C3        C        0.75        0.759259        0.334526        0        
C3        C        0.8125        0.759259        0.334526        0        
C3        C        0.875        0.759259        0.334526        0        
C3        C        0.9375        0.759259        0.334526        0        
C4        C        0.03125        0.703703        0.334526        0        
C4        C        0.09375        0.703703        0.334526        0        
C4        C        0.15625        0.703703        0.334526        0        
C4        C        0.21875        0.703703        0.334526        0        
C4        C        0.28125        0.703703        0.334526        0        
C4        C        0.34375        0.703703        0.334526        0        
C4        C        0.40625        0.703703        0.334526        0        
C4        C        0.46875        0.703703        0.334526        0        
C4        C        0.53125        0.703703        0.334526        0        
C4        C        0.59375        0.703703        0.334526        0        
C4        C        0.65625        0.703703        0.334526        0        
C4        C        0.71875        0.703703        0.334526        0        
C4        C        0.78125        0.703703        0.334526        0        
C4        C        0.84375        0.703703        0.334526        0        
C4        C        0.9062500000000001        0.703703        0.334526        0        
C4        C        0.9687500000000001        0.703703        0.334526        0        
C1        C        0.0        0.796297        0.334526        0        
C1        C        0.0625        0.796297        0.334526        0        
C1        C        0.125        0.796297        0.334526        0        
C1        C        0.1875        0.796297        0.334526        0        
C1        C        0.25        0.796297        0.334526        0        
C1        C        0.3125        0.796297        0.334526        0        
C1        C        0.375        0.796297        0.334526        0        
C1        C        0.4375        0.796297        0.334526        0        
C1        C        0.5        0.796297        0.334526        0        
C1        C        0.5625        0.796297        0.334526        0        
C1        C        0.625        0.796297        0.334526        0        
C1        C        0.6875        0.796297        0.334526        0        
C1        C        0.75        0.796297        0.334526        0        
C1        C        0.8125        0.796297        0.334526        0        
C1        C        0.875        0.796297        0.334526        0        
C1        C        0.9375        0.796297        0.334526        0        
C2        C        0.03125        0.851852        0.334526        0        
C2        C        0.09375        0.851852        0.334526        0        
C2        C        0.15625        0.851852        0.334526        0        
C2        C        0.21875        0.851852        0.334526        0        
C2        C        0.28125        0.851852        0.334526        0        
C2        C        0.34375        0.851852        0.334526        0        
C2        C        0.40625        0.851852        0.334526        0        
C2        C        0.46875        0.851852        0.334526        0        
C2        C        0.53125        0.851852        0.334526        0        
C2        C        0.59375        0.851852        0.334526        0        
C2        C        0.65625        0.851852        0.334526        0        
C2        C        0.71875        0.851852        0.334526        0        
C2        C        0.78125        0.851852        0.334526        0        
C2        C        0.84375        0.851852        0.334526        0        
C2        C        0.9062500000000001        0.851852        0.334526        0        
C2        C        0.9687500000000001        0.851852        0.334526        0        
C_FG        C        0.0        0.87037        0.334526        0.08        
C3        C        0.0625        0.87037        0.334526        0        
C3        C        0.125        0.87037        0.334526        0        
C3        C        0.1875        0.87037        0.334526        0        
C_FG        C        0.25        0.87037        0.334526        0.08        
C3        C        0.3125        0.87037        0.334526        0        
C3        C        0.375        0.87037        0.334526        0        
C3        C        0.4375        0.87037        0.334526        0        
C_FG        C        0.5        0.87037        0.334526        0.08        
C3        C        0.5625        0.87037        0.334526        0        
C3        C        0.625        0.87037        0.334526        0        
C3        C        0.6875        0.87037        0.334526        0        
C_FG        C        0.75        0.87037        0.334526        0.08        
C3        C        0.8125        0.87037        0.334526        0        
C3        C        0.875        0.87037        0.334526        0        
C3        C        0.9375        0.87037        0.334526        0        
C4        C        0.03125        0.814814        0.334526        0        
C4        C        0.09375        0.814814        0.334526        0        
C4        C        0.15625        0.814814        0.334526        0        
C4        C        0.21875        0.814814        0.334526        0        
C4        C        0.28125        0.814814        0.334526        0        
C4        C        0.34375        0.814814        0.334526        0        
C4        C        0.40625        0.814814        0.334526        0        
C4        C        0.46875        0.814814        0.334526        0        
C4        C        0.53125        0.814814        0.334526        0        
C4        C        0.59375        0.814814        0.334526        0        
C4        C        0.65625        0.814814        0.334526        0        
C4        C        0.71875        0.814814        0.334526        0        
C4        C        0.78125        0.814814        0.334526        0        
C4        C        0.84375        0.814814        0.334526        0        
C4        C        0.9062500000000001        0.814814        0.334526        0        
C4        C        0.9687500000000001        0.814814        0.334526        0        
C1        C        0.0        0.907408        0.334526        0        
C1        C        0.0625        0.907408        0.334526        0        
C1        C        0.125        0.907408        0.334526        0        
C1        C        0.1875        0.907408        0.334526        0        
C1        C        0.25        0.907408        0.334526        0        
C1        C        0.3125        0.907408        0.334526        0        
C1        C        0.375        0.907408        0.334526        0        
C1        C        0.4375        0.907408        0.334526        0        
C1        C        0.5        0.907408        0.334526        0        
C1        C        0.5625        0.907408        0.334526        0        
C1        C        0.625        0.907408        0.334526        0        
C1        C        0.6875        0.907408        0.334526        0        
C1        C        0.75        0.907408        0.334526        0        
C1        C        0.8125        0.907408        0.334526        0        
C1        C        0.875        0.907408        0.334526        0        
C1        C        0.9375        0.907408        0.334526        0        
C2        C        0.03125        0.962963        0.334526        0        
C2        C        0.09375        0.962963        0.334526        0        
C2        C        0.15625        0.962963        0.334526        0        
C2        C        0.21875        0.962963        0.334526        0        
C2        C        0.28125        0.962963        0.334526        0        
C2        C        0.34375        0.962963        0.334526        0        
C2        C        0.40625        0.962963        0.334526        0        
C2        C        0.46875        0.962963        0.334526        0        
C2        C        0.53125        0.962963        0.334526        0        
C2        C        0.59375        0.962963        0.334526        0        
C2        C        0.65625        0.962963        0.334526        0        
C2        C        0.71875        0.962963        0.334526        0        
C2        C        0.78125        0.962963        0.334526        0        
C2        C        0.84375        0.962963        0.334526        0        
C2        C        0.9062500000000001        0.962963        0.334526        0        
C2        C        0.9687500000000001        0.962963        0.334526        0        
C3        C        0.0        0.9814809999999999        0.334526        0        
C3        C        0.0625        0.9814809999999999        0.334526        0        
C3        C        0.125        0.9814809999999999        0.334526        0        
C3        C        0.1875        0.9814809999999999        0.334526        0        
C3        C        0.25        0.9814809999999999        0.334526        0        
C3        C        0.3125        0.9814809999999999        0.334526        0        
C3        C        0.375        0.9814809999999999        0.334526        0        
C3        C        0.4375        0.9814809999999999        0.334526        0        
C3        C        0.5        0.9814809999999999        0.334526        0        
C3        C        0.5625        0.9814809999999999        0.334526        0        
C3        C        0.625        0.9814809999999999        0.334526        0        
C3        C        0.6875        0.9814809999999999        0.334526        0        
C3        C        0.75        0.9814809999999999        0.334526        0        
C3        C        0.8125        0.9814809999999999        0.334526        0        
C3        C        0.875        0.9814809999999999        0.334526        0        
C3        C        0.9375        0.9814809999999999        0.334526        0        
C4        C        0.03125        0.925925        0.334526        0        
C4        C        0.09375        0.925925        0.334526        0        
C4        C        0.15625        0.925925        0.334526        0        
C4        C        0.21875        0.925925        0.334526        0        
C4        C        0.28125        0.925925        0.334526        0        
C4        C        0.34375        0.925925        0.334526        0        
C4        C        0.40625        0.925925        0.334526        0        
C4        C        0.46875        0.925925        0.334526        0        
C4        C        0.53125        0.925925        0.334526        0        
C4        C        0.59375        0.925925        0.334526        0        
C4        C        0.65625        0.925925        0.334526        0        
C4        C        0.71875        0.925925        0.334526        0        
C4        C        0.78125        0.925925        0.334526        0        
C4        C        0.84375        0.925925        0.334526        0        
C4        C        0.9062500000000001        0.925925        0.334526        0        
C4        C        0.9687500000000001        0.925925        0.334526        0        
C_FG        C        0.0        0.018519        0.665474        0.08        
C2        C        0.03125        0.074075        0.665474        0        
C3        C        0.0        0.092592        0.665474        0        
C4        C        0.03125        0.037037        0.665474        0        
C1        C        0.0        0.12963        0.665474        0        
C2        C        0.03125        0.185185        0.665474        0        
C_FG        C        0.0        0.203703        0.665474        0.08        
C4        C        0.03125        0.148148        0.665474        0        
C1        C        0.0        0.24074099999999998        0.665474        0        
C2        C        0.03125        0.296297        0.665474        0        
C3        C        0.0        0.314815        0.665474        0        
C4        C        0.03125        0.259259        0.665474        0        
C_FG        C        0.0        0.351852        0.665474        0.08        
C2        C        0.03125        0.407408        0.665474        0        
C3        C        0.0        0.42592500000000005        0.665474        0        
C4        C        0.03125        0.37037        0.665474        0        
C1        C        0.0        0.46296300000000007        0.665474        0        
C2        C        0.03125        0.518519        0.665474        0        
C_FG        C        0.0        0.537037        0.665474        0.08        
C4        C        0.03125        0.481481        0.665474        0        
C1        C        0.0        0.574075        0.665474        0        
C2        C        0.03125        0.62963        0.665474        0        
C3        C        0.0        0.648148        0.665474        0        
C4        C        0.03125        0.592592        0.665474        0        
C1        C        0.0625        0.018519        0.665474        0        
C2        C        0.09375        0.074075        0.665474        0        
C3        C        0.0625        0.092592        0.665474        0        
C4        C        0.09375        0.037037        0.665474        0        
C1        C        0.0625        0.12963        0.665474        0        
C2        C        0.09375        0.185185        0.665474        0        
C3        C        0.0625        0.203703        0.665474        0        
C4        C        0.09375        0.148148        0.665474        0        
C1        C        0.0625        0.24074099999999998        0.665474        0        
C2        C        0.09375        0.296297        0.665474        0        
C3        C        0.0625        0.314815        0.665474        0        
C4        C        0.09375        0.259259        0.665474        0        
C1        C        0.0625        0.351852        0.665474        0        
C2        C        0.09375        0.407408        0.665474        0        
C3        C        0.0625        0.42592500000000005        0.665474        0        
C4        C        0.09375        0.37037        0.665474        0        
C1        C        0.0625        0.46296300000000007        0.665474        0        
C2        C        0.09375        0.518519        0.665474        0        
C3        C        0.0625        0.537037        0.665474        0        
C4        C        0.09375        0.481481        0.665474        0        
C1        C        0.0625        0.574075        0.665474        0        
C2        C        0.09375        0.62963        0.665474        0        
C3        C        0.0625        0.648148        0.665474        0        
C4        C        0.09375        0.592592        0.665474        0        
C1        C        0.125        0.018519        0.665474        0        
C2        C        0.15625        0.074075        0.665474        0        
C3        C        0.125        0.092592        0.665474        0        
C4        C        0.15625        0.037037        0.665474        0        
C1        C        0.125        0.12963        0.665474        0        
C2        C        0.15625        0.185185        0.665474        0        
C3        C        0.125        0.203703        0.665474        0        
C4        C        0.15625        0.148148        0.665474        0        
C1        C        0.125        0.24074099999999998        0.665474        0        
C2        C        0.15625        0.296297        0.665474        0        
C3        C        0.125        0.314815        0.665474        0        
C4        C        0.15625        0.259259        0.665474        0        
C1        C        0.125        0.351852        0.665474        0        
C2        C        0.15625        0.407408        0.665474        0        
C3        C        0.125        0.42592500000000005        0.665474        0        
C4        C        0.15625        0.37037        0.665474        0        
C1        C        0.125        0.46296300000000007        0.665474        0        
C2        C        0.15625        0.518519        0.665474        0        
C3        C        0.125        0.537037        0.665474        0        
C4        C        0.15625        0.481481        0.665474        0        
C1        C        0.125        0.574075        0.665474        0        
C2        C        0.15625        0.62963        0.665474        0        
C3        C        0.125        0.648148        0.665474        0        
C4        C        0.15625        0.592592        0.665474        0        
C1        C        0.1875        0.018519        0.665474        0        
C2        C        0.21875        0.074075        0.665474        0        
C3        C        0.1875        0.092592        0.665474        0        
C4        C        0.21875        0.037037        0.665474        0        
C1        C        0.1875        0.12963        0.665474        0        
C2        C        0.21875        0.185185        0.665474        0        
C3        C        0.1875        0.203703        0.665474        0        
C4        C        0.21875        0.148148        0.665474        0        
C1        C        0.1875        0.24074099999999998        0.665474        0        
C2        C        0.21875        0.296297        0.665474        0        
C3        C        0.1875        0.314815        0.665474        0        
C4        C        0.21875        0.259259        0.665474        0        
C1        C        0.1875        0.351852        0.665474        0        
C2        C        0.21875        0.407408        0.665474        0        
C3        C        0.1875        0.42592500000000005        0.665474        0        
C4        C        0.21875        0.37037        0.665474        0        
C1        C        0.1875        0.46296300000000007        0.665474        0        
C2        C        0.21875        0.518519        0.665474        0        
C3        C        0.1875        0.537037        0.665474        0        
C4        C        0.21875        0.481481        0.665474        0        
C1        C        0.1875        0.574075        0.665474        0        
C2        C        0.21875        0.62963        0.665474        0        
C3        C        0.1875        0.648148        0.665474        0        
C4        C        0.21875        0.592592        0.665474        0        
C_FG        C        0.25        0.018519        0.665474        0.08        
C2        C        0.28125        0.074075        0.665474        0        
C3        C        0.25        0.092592        0.665474        0        
C4        C        0.28125        0.037037        0.665474        0        
C1        C        0.25        0.12963        0.665474        0        
C2        C        0.28125        0.185185        0.665474        0        
C_FG        C        0.25        0.203703        0.665474        0.08        
C4        C        0.28125        0.148148        0.665474        0        
C1        C        0.25        0.24074099999999998        0.665474        0        
C2        C        0.28125        0.296297        0.665474        0        
C3        C        0.25        0.314815        0.665474        0        
C4        C        0.28125        0.259259        0.665474        0        
C_FG        C        0.25        0.351852        0.665474        0.08        
C2        C        0.28125        0.407408        0.665474        0        
C3        C        0.25        0.42592500000000005        0.665474        0        
C4        C        0.28125        0.37037        0.665474        0        
C1        C        0.25        0.46296300000000007        0.665474        0        
C2        C        0.28125        0.518519        0.665474        0        
C_FG        C        0.25        0.537037        0.665474        0.08        
C4        C        0.28125        0.481481        0.665474        0        
C1        C        0.25        0.574075        0.665474        0        
C2        C        0.28125        0.62963        0.665474        0        
C3        C        0.25        0.648148        0.665474        0        
C4        C        0.28125        0.592592        0.665474        0        
C1        C        0.3125        0.018519        0.665474        0        
C2        C        0.34375        0.074075        0.665474        0        
C3        C        0.3125        0.092592        0.665474        0        
C4        C        0.34375        0.037037        0.665474        0        
C1        C        0.3125        0.12963        0.665474        0        
C2        C        0.34375        0.185185        0.665474        0        
C3        C        0.3125        0.203703        0.665474        0        
C4        C        0.34375        0.148148        0.665474        0        
C1        C        0.3125        0.24074099999999998        0.665474        0        
C2        C        0.34375        0.296297        0.665474        0        
C3        C        0.3125        0.314815        0.665474        0        
C4        C        0.34375        0.259259        0.665474        0        
C1        C        0.3125        0.351852        0.665474        0        
C2        C        0.34375        0.407408        0.665474        0        
C3        C        0.3125        0.42592500000000005        0.665474        0        
C4        C        0.34375        0.37037        0.665474        0        
C1        C        0.3125        0.46296300000000007        0.665474        0        
C2        C        0.34375        0.518519        0.665474        0        
C3        C        0.3125        0.537037        0.665474        0        
C4        C        0.34375        0.481481        0.665474        0        
C1        C        0.3125        0.574075        0.665474        0        
C2        C        0.34375        0.62963        0.665474        0        
C3        C        0.3125        0.648148        0.665474        0        
C4        C        0.34375        0.592592        0.665474        0        
C1        C        0.375        0.018519        0.665474        0        
C2        C        0.40625        0.074075        0.665474        0        
C3        C        0.375        0.092592        0.665474        0        
C4        C        0.40625        0.037037        0.665474        0        
C1        C        0.375        0.12963        0.665474        0        
C2        C        0.40625        0.185185        0.665474        0        
C3        C        0.375        0.203703        0.665474        0        
C4        C        0.40625        0.148148        0.665474        0        
C1        C        0.375        0.24074099999999998        0.665474        0        
C2        C        0.40625        0.296297        0.665474        0        
C3        C        0.375        0.314815        0.665474        0        
C4        C        0.40625        0.259259        0.665474        0        
C1        C        0.375        0.351852        0.665474        0        
C2        C        0.40625        0.407408        0.665474        0        
C3        C        0.375        0.42592500000000005        0.665474        0        
C4        C        0.40625        0.37037        0.665474        0        
C1        C        0.375        0.46296300000000007        0.665474        0        
C2        C        0.40625        0.518519        0.665474        0        
C3        C        0.375        0.537037        0.665474        0        
C4        C        0.40625        0.481481        0.665474        0        
C1        C        0.375        0.574075        0.665474        0        
C2        C        0.40625        0.62963        0.665474        0        
C3        C        0.375        0.648148        0.665474        0        
C4        C        0.40625        0.592592        0.665474        0        
C1        C        0.4375        0.018519        0.665474        0        
C2        C        0.46875        0.074075        0.665474        0        
C3        C        0.4375        0.092592        0.665474        0        
C4        C        0.46875        0.037037        0.665474        0        
C1        C        0.4375        0.12963        0.665474        0        
C2        C        0.46875        0.185185        0.665474        0        
C3        C        0.4375        0.203703        0.665474        0        
C4        C        0.46875        0.148148        0.665474        0        
C1        C        0.4375        0.24074099999999998        0.665474        0        
C2        C        0.46875        0.296297        0.665474        0        
C3        C        0.4375        0.314815        0.665474        0        
C4        C        0.46875        0.259259        0.665474        0        
C1        C        0.4375        0.351852        0.665474        0        
C2        C        0.46875        0.407408        0.665474        0        
C3        C        0.4375        0.42592500000000005        0.665474        0        
C4        C        0.46875        0.37037        0.665474        0        
C1        C        0.4375        0.46296300000000007        0.665474        0        
C2        C        0.46875        0.518519        0.665474        0        
C3        C        0.4375        0.537037        0.665474        0        
C4        C        0.46875        0.481481        0.665474        0        
C1        C        0.4375        0.574075        0.665474        0        
C2        C        0.46875        0.62963        0.665474        0        
C3        C        0.4375        0.648148        0.665474        0        
C4        C        0.46875        0.592592        0.665474        0        
C_FG        C        0.5        0.018519        0.665474        0.08        
C2        C        0.53125        0.074075        0.665474        0        
C3        C        0.5        0.092592        0.665474        0        
C4        C        0.53125        0.037037        0.665474        0        
C1        C        0.5        0.12963        0.665474        0        
C2        C        0.53125        0.185185        0.665474        0        
C_FG        C        0.5        0.203703        0.665474        0.08        
C4        C        0.53125        0.148148        0.665474        0        
C1        C        0.5        0.24074099999999998        0.665474        0        
C2        C        0.53125        0.296297        0.665474        0        
C3        C        0.5        0.314815        0.665474        0        
C4        C        0.53125        0.259259        0.665474        0        
C_FG        C        0.5        0.351852        0.665474        0.08        
C2        C        0.53125        0.407408        0.665474        0        
C3        C        0.5        0.42592500000000005        0.665474        0        
C4        C        0.53125        0.37037        0.665474        0        
C1        C        0.5        0.46296300000000007        0.665474        0        
C2        C        0.53125        0.518519        0.665474        0        
C_FG        C        0.5        0.537037        0.665474        0.08        
C4        C        0.53125        0.481481        0.665474        0        
C1        C        0.5        0.574075        0.665474        0        
C2        C        0.53125        0.62963        0.665474        0        
C3        C        0.5        0.648148        0.665474        0        
C4        C        0.53125        0.592592        0.665474        0        
C1        C        0.5625        0.018519        0.665474        0        
C2        C        0.59375        0.074075        0.665474        0        
C3        C        0.5625        0.092592        0.665474        0        
C4        C        0.59375        0.037037        0.665474        0        
C1        C        0.5625        0.12963        0.665474        0        
C2        C        0.59375        0.185185        0.665474        0        
C3        C        0.5625        0.203703        0.665474        0        
C4        C        0.59375        0.148148        0.665474        0        
C1        C        0.5625        0.24074099999999998        0.665474        0        
C2        C        0.59375        0.296297        0.665474        0        
C3        C        0.5625        0.314815        0.665474        0        
C4        C        0.59375        0.259259        0.665474        0        
C1        C        0.5625        0.351852        0.665474        0        
C2        C        0.59375        0.407408        0.665474        0        
C3        C        0.5625        0.42592500000000005        0.665474        0        
C4        C        0.59375        0.37037        0.665474        0        
C1        C        0.5625        0.46296300000000007        0.665474        0        
C2        C        0.59375        0.518519        0.665474        0        
C3        C        0.5625        0.537037        0.665474        0        
C4        C        0.59375        0.481481        0.665474        0        
C1        C        0.5625        0.574075        0.665474        0        
C2        C        0.59375        0.62963        0.665474        0        
C3        C        0.5625        0.648148        0.665474        0        
C4        C        0.59375        0.592592        0.665474        0        
C1        C        0.625        0.018519        0.665474        0        
C2        C        0.65625        0.074075        0.665474        0        
C3        C        0.625        0.092592        0.665474        0        
C4        C        0.65625        0.037037        0.665474        0        
C1        C        0.625        0.12963        0.665474        0        
C2        C        0.65625        0.185185        0.665474        0        
C3        C        0.625        0.203703        0.665474        0        
C4        C        0.65625        0.148148        0.665474        0        
C1        C        0.625        0.24074099999999998        0.665474        0        
C2        C        0.65625        0.296297        0.665474        0        
C3        C        0.625        0.314815        0.665474        0        
C4        C        0.65625        0.259259        0.665474        0        
C1        C        0.625        0.351852        0.665474        0        
C2        C        0.65625        0.407408        0.665474        0        
C3        C        0.625        0.42592500000000005        0.665474        0        
C4        C        0.65625        0.37037        0.665474        0        
C1        C        0.625        0.46296300000000007        0.665474        0        
C2        C        0.65625        0.518519        0.665474        0        
C3        C        0.625        0.537037        0.665474        0        
C4        C        0.65625        0.481481        0.665474        0        
C1        C        0.625        0.574075        0.665474        0        
C2        C        0.65625        0.62963        0.665474        0        
C3        C        0.625        0.648148        0.665474        0        
C4        C        0.65625        0.592592        0.665474        0        
C1        C        0.6875        0.018519        0.665474        0        
C2        C        0.71875        0.074075        0.665474        0        
C3        C        0.6875        0.092592        0.665474        0        
C4        C        0.71875        0.037037        0.665474        0        
C1        C        0.6875        0.12963        0.665474        0        
C2        C        0.71875        0.185185        0.665474        0        
C3        C        0.6875        0.203703        0.665474        0        
C4        C        0.71875        0.148148        0.665474        0        
C1        C        0.6875        0.24074099999999998        0.665474        0        
C2        C        0.71875        0.296297        0.665474        0        
C3        C        0.6875        0.314815        0.665474        0        
C4        C        0.71875        0.259259        0.665474        0        
C1        C        0.6875        0.351852        0.665474        0        
C2        C        0.71875        0.407408        0.665474        0        
C3        C        0.6875        0.42592500000000005        0.665474        0        
C4        C        0.71875        0.37037        0.665474        0        
C1        C        0.6875        0.46296300000000007        0.665474        0        
C2        C        0.71875        0.518519        0.665474        0        
C3        C        0.6875        0.537037        0.665474        0        
C4        C        0.71875        0.481481        0.665474        0        
C1        C        0.6875        0.574075        0.665474        0        
C2        C        0.71875        0.62963        0.665474        0        
C3        C        0.6875        0.648148        0.665474        0        
C4        C        0.71875        0.592592        0.665474        0        
C_FG        C        0.75        0.018519        0.665474        0.08        
C2        C        0.78125        0.074075        0.665474        0        
C3        C        0.75        0.092592        0.665474        0        
C4        C        0.78125        0.037037        0.665474        0        
C1        C        0.75        0.12963        0.665474        0        
C2        C        0.78125        0.185185        0.665474        0        
C_FG        C        0.75        0.203703        0.665474        0.08        
C4        C        0.78125        0.148148        0.665474        0        
C1        C        0.75        0.24074099999999998        0.665474        0        
C2        C        0.78125        0.296297        0.665474        0        
C3        C        0.75        0.314815        0.665474        0        
C4        C        0.78125        0.259259        0.665474        0        
C_FG        C        0.75        0.351852        0.665474        0.08        
C2        C        0.78125        0.407408        0.665474        0        
C3        C        0.75        0.42592500000000005        0.665474        0        
C4        C        0.78125        0.37037        0.665474        0        
C1        C        0.75        0.46296300000000007        0.665474        0        
C2        C        0.78125        0.518519        0.665474        0        
C_FG        C        0.75        0.537037        0.665474        0.08        
C4        C        0.78125        0.481481        0.665474        0        
C1        C        0.75        0.574075        0.665474        0        
C2        C        0.78125        0.62963        0.665474        0        
C3        C        0.75        0.648148        0.665474        0        
C4        C        0.78125        0.592592        0.665474        0        
C1        C        0.8125        0.018519        0.665474        0        
C2        C        0.84375        0.074075        0.665474        0        
C3        C        0.8125        0.092592        0.665474        0        
C4        C        0.84375        0.037037        0.665474        0        
C1        C        0.8125        0.12963        0.665474        0        
C2        C        0.84375        0.185185        0.665474        0        
C3        C        0.8125        0.203703        0.665474        0        
C4        C        0.84375        0.148148        0.665474        0        
C1        C        0.8125        0.24074099999999998        0.665474        0        
C2        C        0.84375        0.296297        0.665474        0        
C3        C        0.8125        0.314815        0.665474        0        
C4        C        0.84375        0.259259        0.665474        0        
C1        C        0.8125        0.351852        0.665474        0        
C2        C        0.84375        0.407408        0.665474        0        
C3        C        0.8125        0.42592500000000005        0.665474        0        
C4        C        0.84375        0.37037        0.665474        0        
C1        C        0.8125        0.46296300000000007        0.665474        0        
C2        C        0.84375        0.518519        0.665474        0        
C3        C        0.8125        0.537037        0.665474        0        
C4        C        0.84375        0.481481        0.665474        0        
C1        C        0.8125        0.574075        0.665474        0        
C2        C        0.84375        0.62963        0.665474        0        
C3        C        0.8125        0.648148        0.665474        0        
C4        C        0.84375        0.592592        0.665474        0        
C1        C        0.875        0.018519        0.665474        0        
C2        C        0.9062500000000001        0.074075        0.665474        0        
C3        C        0.875        0.092592        0.665474        0        
C4        C        0.9062500000000001        0.037037        0.665474        0        
C1        C        0.875        0.12963        0.665474        0        
C2        C        0.9062500000000001        0.185185        0.665474        0        
C3        C        0.875        0.203703        0.665474        0        
C4        C        0.9062500000000001        0.148148        0.665474        0        
C1        C        0.875        0.24074099999999998        0.665474        0        
C2        C        0.9062500000000001        0.296297        0.665474        0        
C3        C        0.875        0.314815        0.665474        0        
C4        C        0.9062500000000001        0.259259        0.665474        0        
C1        C        0.875        0.351852        0.665474        0        
C2        C        0.9062500000000001        0.407408        0.665474        0        
C3        C        0.875        0.42592500000000005        0.665474        0        
C4        C        0.9062500000000001        0.37037        0.665474        0        
C1        C        0.875        0.46296300000000007        0.665474        0        
C2        C        0.9062500000000001        0.518519        0.665474        0        
C3        C        0.875        0.537037        0.665474        0        
C4        C        0.9062500000000001        0.481481        0.665474        0        
C1        C        0.875        0.574075        0.665474        0        
C2        C        0.9062500000000001        0.62963        0.665474        0        
C3        C        0.875        0.648148        0.665474        0        
C4        C        0.9062500000000001        0.592592        0.665474        0        
C1        C        0.9375        0.018519        0.665474        0        
C2        C        0.9687500000000001        0.074075        0.665474        0        
C3        C        0.9375        0.092592        0.665474        0        
C4        C        0.9687500000000001        0.037037        0.665474        0        
C1        C        0.9375        0.12963        0.665474        0        
C2        C        0.9687500000000001        0.185185        0.665474        0        
C3        C        0.9375        0.203703        0.665474        0        
C4        C        0.9687500000000001        0.148148        0.665474        0        
C1        C        0.9375        0.24074099999999998        0.665474        0        
C2        C        0.9687500000000001        0.296297        0.665474        0        
C3        C        0.9375        0.314815        0.665474        0        
C4        C        0.9687500000000001        0.259259        0.665474        0        
C1        C        0.9375        0.351852        0.665474        0        
C2        C        0.9687500000000001        0.407408        0.665474        0        
C3        C        0.9375        0.42592500000000005        0.665474        0        
C4        C        0.9687500000000001        0.37037        0.665474        0        
C1        C        0.9375        0.46296300000000007        0.665474        0        
C2        C        0.9687500000000001        0.518519        0.665474        0        
C3        C        0.9375        0.537037        0.665474        0        
C4        C        0.9687500000000001        0.481481        0.665474        0        
C1        C        0.9375        0.574075        0.665474        0        
C2        C        0.9687500000000001        0.62963        0.665474        0        
C3        C        0.9375        0.648148        0.665474        0        
C4        C        0.9687500000000001        0.592592        0.665474        0        
C_FG        C        0.0        0.685186        0.665474        0.08        
C1        C        0.0625        0.685186        0.665474        0        
C1        C        0.125        0.685186        0.665474        0        
C1        C        0.1875        0.685186        0.665474        0        
C_FG        C        0.25        0.685186        0.665474        0.08        
C1        C        0.3125        0.685186        0.665474        0        
C1        C        0.375        0.685186        0.665474        0        
C1        C        0.4375        0.685186        0.665474        0        
C_FG        C        0.5        0.685186        0.665474        0.08        
C1        C        0.5625        0.685186        0.665474        0        
C1        C        0.625        0.685186        0.665474        0        
C1        C        0.6875        0.685186        0.665474        0        
C_FG        C        0.75        0.685186        0.665474        0.08        
C1        C        0.8125        0.685186        0.665474        0        
C1        C        0.875        0.685186        0.665474        0        
C1        C        0.9375        0.685186        0.665474        0        
C2        C        0.03125        0.740741        0.665474        0        
C2        C        0.09375        0.740741        0.665474        0        
C2        C        0.15625        0.740741        0.665474        0        
C2        C        0.21875        0.740741        0.665474        0        
C2        C        0.28125        0.740741        0.665474        0        
C2        C        0.34375        0.740741        0.665474        0        
C2        C        0.40625        0.740741        0.665474        0        
C2        C        0.46875        0.740741        0.665474        0        
C2        C        0.53125        0.740741        0.665474        0        
C2        C        0.59375        0.740741        0.665474        0        
C2        C        0.65625        0.740741        0.665474        0        
C2        C        0.71875        0.740741        0.665474        0        
C2        C        0.78125        0.740741        0.665474        0        
C2        C        0.84375        0.740741        0.665474        0        
C2        C        0.9062500000000001        0.740741        0.665474        0        
C2        C        0.9687500000000001        0.740741        0.665474        0        
C3        C        0.0        0.759259        0.665474        0        
C3        C        0.0625        0.759259        0.665474        0        
C3        C        0.125        0.759259        0.665474        0        
C3        C        0.1875        0.759259        0.665474        0        
C3        C        0.25        0.759259        0.665474        0        
C3        C        0.3125        0.759259        0.665474        0        
C3        C        0.375        0.759259        0.665474        0        
C3        C        0.4375        0.759259        0.665474        0        
C3        C        0.5        0.759259        0.665474        0        
C3        C        0.5625        0.759259        0.665474        0        
C3        C        0.625        0.759259        0.665474        0        
C3        C        0.6875        0.759259        0.665474        0        
C3        C        0.75        0.759259        0.665474        0        
C3        C        0.8125        0.759259        0.665474        0        
C3        C        0.875        0.759259        0.665474        0        
C3        C        0.9375        0.759259        0.665474        0        
C4        C        0.03125        0.703703        0.665474        0        
C4        C        0.09375        0.703703        0.665474        0        
C4        C        0.15625        0.703703        0.665474        0        
C4        C        0.21875        0.703703        0.665474        0        
C4        C        0.28125        0.703703        0.665474        0        
C4        C        0.34375        0.703703        0.665474        0        
C4        C        0.40625        0.703703        0.665474        0        
C4        C        0.46875        0.703703        0.665474        0        
C4        C        0.53125        0.703703        0.665474        0        
C4        C        0.59375        0.703703        0.665474        0        
C4        C        0.65625        0.703703        0.665474        0        
C4        C        0.71875        0.703703        0.665474        0        
C4        C        0.78125        0.703703        0.665474        0        
C4        C        0.84375        0.703703        0.665474        0        
C4        C        0.9062500000000001        0.703703        0.665474        0        
C4        C        0.9687500000000001        0.703703        0.665474        0        
C1        C        0.0        0.796297        0.665474        0        
C1        C        0.0625        0.796297        0.665474        0        
C1        C        0.125        0.796297        0.665474        0        
C1        C        0.1875        0.796297        0.665474        0        
C1        C        0.25        0.796297        0.665474        0        
C1        C        0.3125        0.796297        0.665474        0        
C1        C        0.375        0.796297        0.665474        0        
C1        C        0.4375        0.796297        0.665474        0        
C1        C        0.5        0.796297        0.665474        0        
C1        C        0.5625        0.796297        0.665474        0        
C1        C        0.625        0.796297        0.665474        0        
C1        C        0.6875        0.796297        0.665474        0        
C1        C        0.75        0.796297        0.665474        0        
C1        C        0.8125        0.796297        0.665474        0        
C1        C        0.875        0.796297        0.665474        0        
C1        C        0.9375        0.796297        0.665474        0        
C2        C        0.03125        0.851852        0.665474        0        
C2        C        0.09375        0.851852        0.665474        0        
C2        C        0.15625        0.851852        0.665474        0        
C2        C        0.21875        0.851852        0.665474        0        
C2        C        0.28125        0.851852        0.665474        0        
C2        C        0.34375        0.851852        0.665474        0        
C2        C        0.40625        0.851852        0.665474        0        
C2        C        0.46875        0.851852        0.665474        0        
C2        C        0.53125        0.851852        0.665474        0        
C2        C        0.59375        0.851852        0.665474        0        
C2        C        0.65625        0.851852        0.665474        0        
C2        C        0.71875        0.851852        0.665474        0        
C2        C        0.78125        0.851852        0.665474        0        
C2        C        0.84375        0.851852        0.665474        0        
C2        C        0.9062500000000001        0.851852        0.665474        0        
C2        C        0.9687500000000001        0.851852        0.665474        0        
C_FG        C        0.0        0.87037        0.665474        0.08        
C3        C        0.0625        0.87037        0.665474        0        
C3        C        0.125        0.87037        0.665474        0        
C3        C        0.1875        0.87037        0.665474        0        
C_FG        C        0.25        0.87037        0.665474        0.08        
C3        C        0.3125        0.87037        0.665474        0        
C3        C        0.375        0.87037        0.665474        0        
C3        C        0.4375        0.87037        0.665474        0        
C_FG        C        0.5        0.87037        0.665474        0.08        
C3        C        0.5625        0.87037        0.665474        0        
C3        C        0.625        0.87037        0.665474        0        
C3        C        0.6875        0.87037        0.665474        0        
C_FG        C        0.75        0.87037        0.665474        0.08        
C3        C        0.8125        0.87037        0.665474        0        
C3        C        0.875        0.87037        0.665474        0        
C3        C        0.9375        0.87037        0.665474        0        
C4        C        0.03125        0.814814        0.665474        0        
C4        C        0.09375        0.814814        0.665474        0        
C4        C        0.15625        0.814814        0.665474        0        
C4        C        0.21875        0.814814        0.665474        0        
C4        C        0.28125        0.814814        0.665474        0        
C4        C        0.34375        0.814814        0.665474        0        
C4        C        0.40625        0.814814        0.665474        0        
C4        C        0.46875        0.814814        0.665474        0        
C4        C        0.53125        0.814814        0.665474        0        
C4        C        0.59375        0.814814        0.665474        0        
C4        C        0.65625        0.814814        0.665474        0        
C4        C        0.71875        0.814814        0.665474        0        
C4        C        0.78125        0.814814        0.665474        0        
C4        C        0.84375        0.814814        0.665474        0        
C4        C        0.9062500000000001        0.814814        0.665474        0        
C4        C        0.9687500000000001        0.814814        0.665474        0        
C1        C        0.0        0.907408        0.665474        0        
C1        C        0.0625        0.907408        0.665474        0        
C1        C        0.125        0.907408        0.665474        0        
C1        C        0.1875        0.907408        0.665474        0        
C1        C        0.25        0.907408        0.665474        0        
C1        C        0.3125        0.907408        0.665474        0        
C1        C        0.375        0.907408        0.665474        0        
C1        C        0.4375        0.907408        0.665474        0        
C1        C        0.5        0.907408        0.665474        0        
C1        C        0.5625        0.907408        0.665474        0        
C1        C        0.625        0.907408        0.665474        0        
C1        C        0.6875        0.907408        0.665474        0        
C1        C        0.75        0.907408        0.665474        0        
C1        C        0.8125        0.907408        0.665474        0        
C1        C        0.875        0.907408        0.665474        0        
C1        C        0.9375        0.907408        0.665474        0        
C2        C        0.03125        0.962963        0.665474        0        
C2        C        0.09375        0.962963        0.665474        0        
C2        C        0.15625        0.962963        0.665474        0        
C2        C        0.21875        0.962963        0.665474        0        
C2        C        0.28125        0.962963        0.665474        0        
C2        C        0.34375        0.962963        0.665474        0        
C2        C        0.40625        0.962963        0.665474        0        
C2        C        0.46875        0.962963        0.665474        0        
C2        C        0.53125        0.962963        0.665474        0        
C2        C        0.59375        0.962963        0.665474        0        
C2        C        0.65625        0.962963        0.665474        0        
C2        C        0.71875        0.962963        0.665474        0        
C2        C        0.78125        0.962963        0.665474        0        
C2        C        0.84375        0.962963        0.665474        0        
C2        C        0.9062500000000001        0.962963        0.665474        0        
C2        C        0.9687500000000001        0.962963        0.665474        0        
C3        C        0.0        0.9814809999999999        0.665474        0        
C3        C        0.0625        0.9814809999999999        0.665474        0        
C3        C        0.125        0.9814809999999999        0.665474        0        
C3        C        0.1875        0.9814809999999999        0.665474        0        
C3        C        0.25        0.9814809999999999        0.665474        0        
C3        C        0.3125        0.9814809999999999        0.665474        0        
C3        C        0.375        0.9814809999999999        0.665474        0        
C3        C        0.4375        0.9814809999999999        0.665474        0        
C3        C        0.5        0.9814809999999999        0.665474        0        
C3        C        0.5625        0.9814809999999999        0.665474        0        
C3        C        0.625        0.9814809999999999        0.665474        0        
C3        C        0.6875        0.9814809999999999        0.665474        0        
C3        C        0.75        0.9814809999999999        0.665474        0        
C3        C        0.8125        0.9814809999999999        0.665474        0        
C3        C        0.875        0.9814809999999999        0.665474        0        
C3        C        0.9375        0.9814809999999999        0.665474        0        
C4        C        0.03125        0.925925        0.665474        0        
C4        C        0.09375        0.925925        0.665474        0        
C4        C        0.15625        0.925925        0.665474        0        
C4        C        0.21875        0.925925        0.665474        0        
C4        C        0.28125        0.925925        0.665474        0        
C4        C        0.34375        0.925925        0.665474        0        
C4        C        0.40625        0.925925        0.665474        0        
C4        C        0.46875        0.925925        0.665474        0        
C4        C        0.53125        0.925925        0.665474        0        
C4        C        0.59375        0.925925        0.665474        0        
C4        C        0.65625        0.925925        0.665474        0        
C4        C        0.71875        0.925925        0.665474        0        
C4        C        0.78125        0.925925        0.665474        0        
C4        C        0.84375        0.925925        0.665474        0        
C4        C        0.9062500000000001        0.925925        0.665474        0        
C4        C        0.9687500000000001        0.925925        0.665474        0        
C1        C        0.0        0.018519        0.725403        0        
C2        C        0.03125        0.074075        0.725403        0        
C3        C        0.0        0.092592        0.725403        0        
C4        C        0.03125        0.037037        0.725403        0        
C1        C        0.0        0.12963        0.725403        0        
C2        C        0.03125        0.185185        0.725403        0        
C3        C        0.0        0.203703        0.725403        0        
C4        C        0.03125        0.148148        0.725403        0        
C1        C        0.0        0.24074099999999998        0.725403        0        
C2        C        0.03125        0.296297        0.725403        0        
C3        C        0.0        0.314815        0.725403        0        
C4        C        0.03125        0.259259        0.725403        0        
C1        C        0.0        0.351852        0.725403        0        
C2        C        0.03125        0.407408        0.725403        0        
C3        C        0.0        0.42592500000000005        0.725403        0        
C4        C        0.03125        0.37037        0.725403        0        
C1        C        0.0        0.46296300000000007        0.725403        0        
C2        C        0.03125        0.518519        0.725403        0        
C3        C        0.0        0.537037        0.725403        0        
C4        C        0.03125        0.481481        0.725403        0        
C1        C        0.0        0.574075        0.725403        0        
C2        C        0.03125        0.62963        0.725403        0        
C3        C        0.0        0.648148        0.725403        0        
C4        C        0.03125        0.592592        0.725403        0        
C1        C        0.0625        0.018519        0.725403        0        
C2        C        0.09375        0.074075        0.725403        0        
C3        C        0.0625        0.092592        0.725403        0        
C4        C        0.09375        0.037037        0.725403        0        
C1        C        0.0625        0.12963        0.725403        0        
C2        C        0.09375        0.185185        0.725403        0        
C3        C        0.0625        0.203703        0.725403        0        
C4        C        0.09375        0.148148        0.725403        0        
C1        C        0.0625        0.24074099999999998        0.725403        0        
C2        C        0.09375        0.296297        0.725403        0        
C3        C        0.0625        0.314815        0.725403        0        
C4        C        0.09375        0.259259        0.725403        0        
C1        C        0.0625        0.351852        0.725403        0        
C2        C        0.09375        0.407408        0.725403        0        
C3        C        0.0625        0.42592500000000005        0.725403        0        
C4        C        0.09375        0.37037        0.725403        0        
C1        C        0.0625        0.46296300000000007        0.725403        0        
C2        C        0.09375        0.518519        0.725403        0        
C3        C        0.0625        0.537037        0.725403        0        
C4        C        0.09375        0.481481        0.725403        0        
C1        C        0.0625        0.574075        0.725403        0        
C2        C        0.09375        0.62963        0.725403        0        
C3        C        0.0625        0.648148        0.725403        0        
C4        C        0.09375        0.592592        0.725403        0        
C1        C        0.125        0.018519        0.725403        0        
C2        C        0.15625        0.074075        0.725403        0        
C3        C        0.125        0.092592        0.725403        0        
C4        C        0.15625        0.037037        0.725403        0        
C1        C        0.125        0.12963        0.725403        0        
C2        C        0.15625        0.185185        0.725403        0        
C3        C        0.125        0.203703        0.725403        0        
C4        C        0.15625        0.148148        0.725403        0        
C1        C        0.125        0.24074099999999998        0.725403        0        
C2        C        0.15625        0.296297        0.725403        0        
C3        C        0.125        0.314815        0.725403        0        
C4        C        0.15625        0.259259        0.725403        0        
C1        C        0.125        0.351852        0.725403        0        
C2        C        0.15625        0.407408        0.725403        0        
C3        C        0.125        0.42592500000000005        0.725403        0        
C4        C        0.15625        0.37037        0.725403        0        
C1        C        0.125        0.46296300000000007        0.725403        0        
C2        C        0.15625        0.518519        0.725403        0        
C3        C        0.125        0.537037        0.725403        0        
C4        C        0.15625        0.481481        0.725403        0        
C1        C        0.125        0.574075        0.725403        0        
C2        C        0.15625        0.62963        0.725403        0        
C3        C        0.125        0.648148        0.725403        0        
C4        C        0.15625        0.592592        0.725403        0        
C1        C        0.1875        0.018519        0.725403        0        
C2        C        0.21875        0.074075        0.725403        0        
C3        C        0.1875        0.092592        0.725403        0        
C4        C        0.21875        0.037037        0.725403        0        
C1        C        0.1875        0.12963        0.725403        0        
C2        C        0.21875        0.185185        0.725403        0        
C3        C        0.1875        0.203703        0.725403        0        
C4        C        0.21875        0.148148        0.725403        0        
C1        C        0.1875        0.24074099999999998        0.725403        0        
C2        C        0.21875        0.296297        0.725403        0        
C3        C        0.1875        0.314815        0.725403        0        
C4        C        0.21875        0.259259        0.725403        0        
C1        C        0.1875        0.351852        0.725403        0        
C2        C        0.21875        0.407408        0.725403        0        
C3        C        0.1875        0.42592500000000005        0.725403        0        
C4        C        0.21875        0.37037        0.725403        0        
C1        C        0.1875        0.46296300000000007        0.725403        0        
C2        C        0.21875        0.518519        0.725403        0        
C3        C        0.1875        0.537037        0.725403        0        
C4        C        0.21875        0.481481        0.725403        0        
C1        C        0.1875        0.574075        0.725403        0        
C2        C        0.21875        0.62963        0.725403        0        
C3        C        0.1875        0.648148        0.725403        0        
C4        C        0.21875        0.592592        0.725403        0        
C1        C        0.25        0.018519        0.725403        0        
C2        C        0.28125        0.074075        0.725403        0        
C3        C        0.25        0.092592        0.725403        0        
C4        C        0.28125        0.037037        0.725403        0        
C1        C        0.25        0.12963        0.725403        0        
C2        C        0.28125        0.185185        0.725403        0        
C3        C        0.25        0.203703        0.725403        0        
C4        C        0.28125        0.148148        0.725403        0        
C1        C        0.25        0.24074099999999998        0.725403        0        
C2        C        0.28125        0.296297        0.725403        0        
C3        C        0.25        0.314815        0.725403        0        
C4        C        0.28125        0.259259        0.725403        0        
C1        C        0.25        0.351852        0.725403        0        
C2        C        0.28125        0.407408        0.725403        0        
C3        C        0.25        0.42592500000000005        0.725403        0        
C4        C        0.28125        0.37037        0.725403        0        
C1        C        0.25        0.46296300000000007        0.725403        0        
C2        C        0.28125        0.518519        0.725403        0        
C3        C        0.25        0.537037        0.725403        0        
C4        C        0.28125        0.481481        0.725403        0        
C1        C        0.25        0.574075        0.725403        0        
C2        C        0.28125        0.62963        0.725403        0        
C3        C        0.25        0.648148        0.725403        0        
C4        C        0.28125        0.592592        0.725403        0        
C1        C        0.3125        0.018519        0.725403        0        
C2        C        0.34375        0.074075        0.725403        0        
C3        C        0.3125        0.092592        0.725403        0        
C4        C        0.34375        0.037037        0.725403        0        
C1        C        0.3125        0.12963        0.725403        0        
C2        C        0.34375        0.185185        0.725403        0        
C3        C        0.3125        0.203703        0.725403        0        
C4        C        0.34375        0.148148        0.725403        0        
C1        C        0.3125        0.24074099999999998        0.725403        0        
C2        C        0.34375        0.296297        0.725403        0        
C3        C        0.3125        0.314815        0.725403        0        
C4        C        0.34375        0.259259        0.725403        0        
C1        C        0.3125        0.351852        0.725403        0        
C2        C        0.34375        0.407408        0.725403        0        
C3        C        0.3125        0.42592500000000005        0.725403        0        
C4        C        0.34375        0.37037        0.725403        0        
C1        C        0.3125        0.46296300000000007        0.725403        0        
C2        C        0.34375        0.518519        0.725403        0        
C3        C        0.3125        0.537037        0.725403        0        
C4        C        0.34375        0.481481        0.725403        0        
C1        C        0.3125        0.574075        0.725403        0        
C2        C        0.34375        0.62963        0.725403        0        
C3        C        0.3125        0.648148        0.725403        0        
C4        C        0.34375        0.592592        0.725403        0        
C1        C        0.375        0.018519        0.725403        0        
C2        C        0.40625        0.074075        0.725403        0        
C3        C        0.375        0.092592        0.725403        0        
C4        C        0.40625        0.037037        0.725403        0        
C1        C        0.375        0.12963        0.725403        0        
C2        C        0.40625        0.185185        0.725403        0        
C3        C        0.375        0.203703        0.725403        0        
C4        C        0.40625        0.148148        0.725403        0        
C1        C        0.375        0.24074099999999998        0.725403        0        
C2        C        0.40625        0.296297        0.725403        0        
C3        C        0.375        0.314815        0.725403        0        
C4        C        0.40625        0.259259        0.725403        0        
C1        C        0.375        0.351852        0.725403        0        
C2        C        0.40625        0.407408        0.725403        0        
C3        C        0.375        0.42592500000000005        0.725403        0        
C4        C        0.40625        0.37037        0.725403        0        
C1        C        0.375        0.46296300000000007        0.725403        0        
C2        C        0.40625        0.518519        0.725403        0        
C3        C        0.375        0.537037        0.725403        0        
C4        C        0.40625        0.481481        0.725403        0        
C1        C        0.375        0.574075        0.725403        0        
C2        C        0.40625        0.62963        0.725403        0        
C3        C        0.375        0.648148        0.725403        0        
C4        C        0.40625        0.592592        0.725403        0        
C1        C        0.4375        0.018519        0.725403        0        
C2        C        0.46875        0.074075        0.725403        0        
C3        C        0.4375        0.092592        0.725403        0        
C4        C        0.46875        0.037037        0.725403        0        
C1        C        0.4375        0.12963        0.725403        0        
C2        C        0.46875        0.185185        0.725403        0        
C3        C        0.4375        0.203703        0.725403        0        
C4        C        0.46875        0.148148        0.725403        0        
C1        C        0.4375        0.24074099999999998        0.725403        0        
C2        C        0.46875        0.296297        0.725403        0        
C3        C        0.4375        0.314815        0.725403        0        
C4        C        0.46875        0.259259        0.725403        0        
C1        C        0.4375        0.351852        0.725403        0        
C2        C        0.46875        0.407408        0.725403        0        
C3        C        0.4375        0.42592500000000005        0.725403        0        
C4        C        0.46875        0.37037        0.725403        0        
C1        C        0.4375        0.46296300000000007        0.725403        0        
C2        C        0.46875        0.518519        0.725403        0        
C3        C        0.4375        0.537037        0.725403        0        
C4        C        0.46875        0.481481        0.725403        0        
C1        C        0.4375        0.574075        0.725403        0        
C2        C        0.46875        0.62963        0.725403        0        
C3        C        0.4375        0.648148        0.725403        0        
C4        C        0.46875        0.592592        0.725403        0        
C1        C        0.5        0.018519        0.725403        0        
C2        C        0.53125        0.074075        0.725403        0        
C3        C        0.5        0.092592        0.725403        0        
C4        C        0.53125        0.037037        0.725403        0        
C1        C        0.5        0.12963        0.725403        0        
C2        C        0.53125        0.185185        0.725403        0        
C3        C        0.5        0.203703        0.725403        0        
C4        C        0.53125        0.148148        0.725403        0        
C1        C        0.5        0.24074099999999998        0.725403        0        
C2        C        0.53125        0.296297        0.725403        0        
C3        C        0.5        0.314815        0.725403        0        
C4        C        0.53125        0.259259        0.725403        0        
C1        C        0.5        0.351852        0.725403        0        
C2        C        0.53125        0.407408        0.725403        0        
C3        C        0.5        0.42592500000000005        0.725403        0        
C4        C        0.53125        0.37037        0.725403        0        
C1        C        0.5        0.46296300000000007        0.725403        0        
C2        C        0.53125        0.518519        0.725403        0        
C3        C        0.5        0.537037        0.725403        0        
C4        C        0.53125        0.481481        0.725403        0        
C1        C        0.5        0.574075        0.725403        0        
C2        C        0.53125        0.62963        0.725403        0        
C3        C        0.5        0.648148        0.725403        0        
C4        C        0.53125        0.592592        0.725403        0        
C1        C        0.5625        0.018519        0.725403        0        
C2        C        0.59375        0.074075        0.725403        0        
C3        C        0.5625        0.092592        0.725403        0        
C4        C        0.59375        0.037037        0.725403        0        
C1        C        0.5625        0.12963        0.725403        0        
C2        C        0.59375        0.185185        0.725403        0        
C3        C        0.5625        0.203703        0.725403        0        
C4        C        0.59375        0.148148        0.725403        0        
C1        C        0.5625        0.24074099999999998        0.725403        0        
C2        C        0.59375        0.296297        0.725403        0        
C3        C        0.5625        0.314815        0.725403        0        
C4        C        0.59375        0.259259        0.725403        0        
C1        C        0.5625        0.351852        0.725403        0        
C2        C        0.59375        0.407408        0.725403        0        
C3        C        0.5625        0.42592500000000005        0.725403        0        
C4        C        0.59375        0.37037        0.725403        0        
C1        C        0.5625        0.46296300000000007        0.725403        0        
C2        C        0.59375        0.518519        0.725403        0        
C3        C        0.5625        0.537037        0.725403        0        
C4        C        0.59375        0.481481        0.725403        0        
C1        C        0.5625        0.574075        0.725403        0        
C2        C        0.59375        0.62963        0.725403        0        
C3        C        0.5625        0.648148        0.725403        0        
C4        C        0.59375        0.592592        0.725403        0        
C1        C        0.625        0.018519        0.725403        0        
C2        C        0.65625        0.074075        0.725403        0        
C3        C        0.625        0.092592        0.725403        0        
C4        C        0.65625        0.037037        0.725403        0        
C1        C        0.625        0.12963        0.725403        0        
C2        C        0.65625        0.185185        0.725403        0        
C3        C        0.625        0.203703        0.725403        0        
C4        C        0.65625        0.148148        0.725403        0        
C1        C        0.625        0.24074099999999998        0.725403        0        
C2        C        0.65625        0.296297        0.725403        0        
C3        C        0.625        0.314815        0.725403        0        
C4        C        0.65625        0.259259        0.725403        0        
C1        C        0.625        0.351852        0.725403        0        
C2        C        0.65625        0.407408        0.725403        0        
C3        C        0.625        0.42592500000000005        0.725403        0        
C4        C        0.65625        0.37037        0.725403        0        
C1        C        0.625        0.46296300000000007        0.725403        0        
C2        C        0.65625        0.518519        0.725403        0        
C3        C        0.625        0.537037        0.725403        0        
C4        C        0.65625        0.481481        0.725403        0        
C1        C        0.625        0.574075        0.725403        0        
C2        C        0.65625        0.62963        0.725403        0        
C3        C        0.625        0.648148        0.725403        0        
C4        C        0.65625        0.592592        0.725403        0        
C1        C        0.6875        0.018519        0.725403        0        
C2        C        0.71875        0.074075        0.725403        0        
C3        C        0.6875        0.092592        0.725403        0        
C4        C        0.71875        0.037037        0.725403        0        
C1        C        0.6875        0.12963        0.725403        0        
C2        C        0.71875        0.185185        0.725403        0        
C3        C        0.6875        0.203703        0.725403        0        
C4        C        0.71875        0.148148        0.725403        0        
C1        C        0.6875        0.24074099999999998        0.725403        0        
C2        C        0.71875        0.296297        0.725403        0        
C3        C        0.6875        0.314815        0.725403        0        
C4        C        0.71875        0.259259        0.725403        0        
C1        C        0.6875        0.351852        0.725403        0        
C2        C        0.71875        0.407408        0.725403        0        
C3        C        0.6875        0.42592500000000005        0.725403        0        
C4        C        0.71875        0.37037        0.725403        0        
C1        C        0.6875        0.46296300000000007        0.725403        0        
C2        C        0.71875        0.518519        0.725403        0        
C3        C        0.6875        0.537037        0.725403        0        
C4        C        0.71875        0.481481        0.725403        0        
C1        C        0.6875        0.574075        0.725403        0        
C2        C        0.71875        0.62963        0.725403        0        
C3        C        0.6875        0.648148        0.725403        0        
C4        C        0.71875        0.592592        0.725403        0        
C1        C        0.75        0.018519        0.725403        0        
C2        C        0.78125        0.074075        0.725403        0        
C3        C        0.75        0.092592        0.725403        0        
C4        C        0.78125        0.037037        0.725403        0        
C1        C        0.75        0.12963        0.725403        0        
C2        C        0.78125        0.185185        0.725403        0        
C3        C        0.75        0.203703        0.725403        0        
C4        C        0.78125        0.148148        0.725403        0        
C1        C        0.75        0.24074099999999998        0.725403        0        
C2        C        0.78125        0.296297        0.725403        0        
C3        C        0.75        0.314815        0.725403        0        
C4        C        0.78125        0.259259        0.725403        0        
C1        C        0.75        0.351852        0.725403        0        
C2        C        0.78125        0.407408        0.725403        0        
C3        C        0.75        0.42592500000000005        0.725403        0        
C4        C        0.78125        0.37037        0.725403        0        
C1        C        0.75        0.46296300000000007        0.725403        0        
C2        C        0.78125        0.518519        0.725403        0        
C3        C        0.75        0.537037        0.725403        0        
C4        C        0.78125        0.481481        0.725403        0        
C1        C        0.75        0.574075        0.725403        0        
C2        C        0.78125        0.62963        0.725403        0        
C3        C        0.75        0.648148        0.725403        0        
C4        C        0.78125        0.592592        0.725403        0        
C1        C        0.8125        0.018519        0.725403        0        
C2        C        0.84375        0.074075        0.725403        0        
C3        C        0.8125        0.092592        0.725403        0        
C4        C        0.84375        0.037037        0.725403        0        
C1        C        0.8125        0.12963        0.725403        0        
C2        C        0.84375        0.185185        0.725403        0        
C3        C        0.8125        0.203703        0.725403        0        
C4        C        0.84375        0.148148        0.725403        0        
C1        C        0.8125        0.24074099999999998        0.725403        0        
C2        C        0.84375        0.296297        0.725403        0        
C3        C        0.8125        0.314815        0.725403        0        
C4        C        0.84375        0.259259        0.725403        0        
C1        C        0.8125        0.351852        0.725403        0        
C2        C        0.84375        0.407408        0.725403        0        
C3        C        0.8125        0.42592500000000005        0.725403        0        
C4        C        0.84375        0.37037        0.725403        0        
C1        C        0.8125        0.46296300000000007        0.725403        0        
C2        C        0.84375        0.518519        0.725403        0        
C3        C        0.8125        0.537037        0.725403        0        
C4        C        0.84375        0.481481        0.725403        0        
C1        C        0.8125        0.574075        0.725403        0        
C2        C        0.84375        0.62963        0.725403        0        
C3        C        0.8125        0.648148        0.725403        0        
C4        C        0.84375        0.592592        0.725403        0        
C1        C        0.875        0.018519        0.725403        0        
C2        C        0.9062500000000001        0.074075        0.725403        0        
C3        C        0.875        0.092592        0.725403        0        
C4        C        0.9062500000000001        0.037037        0.725403        0        
C1        C        0.875        0.12963        0.725403        0        
C2        C        0.9062500000000001        0.185185        0.725403        0        
C3        C        0.875        0.203703        0.725403        0        
C4        C        0.9062500000000001        0.148148        0.725403        0        
C1        C        0.875        0.24074099999999998        0.725403        0        
C2        C        0.9062500000000001        0.296297        0.725403        0        
C3        C        0.875        0.314815        0.725403        0        
C4        C        0.9062500000000001        0.259259        0.725403        0        
C1        C        0.875        0.351852        0.725403        0        
C2        C        0.9062500000000001        0.407408        0.725403        0        
C3        C        0.875        0.42592500000000005        0.725403        0        
C4        C        0.9062500000000001        0.37037        0.725403        0        
C1        C        0.875        0.46296300000000007        0.725403        0        
C2        C        0.9062500000000001        0.518519        0.725403        0        
C3        C        0.875        0.537037        0.725403        0        
C4        C        0.9062500000000001        0.481481        0.725403        0        
C1        C        0.875        0.574075        0.725403        0        
C2        C        0.9062500000000001        0.62963        0.725403        0        
C3        C        0.875        0.648148        0.725403        0        
C4        C        0.9062500000000001        0.592592        0.725403        0        
C1        C        0.9375        0.018519        0.725403        0        
C2        C        0.9687500000000001        0.074075        0.725403        0        
C3        C        0.9375        0.092592        0.725403        0        
C4        C        0.9687500000000001        0.037037        0.725403        0        
C1        C        0.9375        0.12963        0.725403        0        
C2        C        0.9687500000000001        0.185185        0.725403        0        
C3        C        0.9375        0.203703        0.725403        0        
C4        C        0.9687500000000001        0.148148        0.725403        0        
C1        C        0.9375        0.24074099999999998        0.725403        0        
C2        C        0.9687500000000001        0.296297        0.725403        0        
C3        C        0.9375        0.314815        0.725403        0        
C4        C        0.9687500000000001        0.259259        0.725403        0        
C1        C        0.9375        0.351852        0.725403        0        
C2        C        0.9687500000000001        0.407408        0.725403        0        
C3        C        0.9375        0.42592500000000005        0.725403        0        
C4        C        0.9687500000000001        0.37037        0.725403        0        
C1        C        0.9375        0.46296300000000007        0.725403        0        
C2        C        0.9687500000000001        0.518519        0.725403        0        
C3        C        0.9375        0.537037        0.725403        0        
C4        C        0.9687500000000001        0.481481        0.725403        0        
C1        C        0.9375        0.574075        0.725403        0        
C2        C        0.9687500000000001        0.62963        0.725403        0        
C3        C        0.9375        0.648148        0.725403        0        
C4        C        0.9687500000000001        0.592592        0.725403        0        
C1        C        0.0        0.685186        0.725403        0        
C1        C        0.0625        0.685186        0.725403        0        
C1        C        0.125        0.685186        0.725403        0        
C1        C        0.1875        0.685186        0.725403        0        
C1        C        0.25        0.685186        0.725403        0        
C1        C        0.3125        0.685186        0.725403        0        
C1        C        0.375        0.685186        0.725403        0        
C1        C        0.4375        0.685186        0.725403        0        
C1        C        0.5        0.685186        0.725403        0        
C1        C        0.5625        0.685186        0.725403        0        
C1        C        0.625        0.685186        0.725403        0        
C1        C        0.6875        0.685186        0.725403        0        
C1        C        0.75        0.685186        0.725403        0        
C1        C        0.8125        0.685186        0.725403        0        
C1        C        0.875        0.685186        0.725403        0        
C1        C        0.9375        0.685186        0.725403        0        
C2        C        0.03125        0.740741        0.725403        0        
C2        C        0.09375        0.740741        0.725403        0        
C2        C        0.15625        0.740741        0.725403        0        
C2        C        0.21875        0.740741        0.725403        0        
C2        C        0.28125        0.740741        0.725403        0        
C2        C        0.34375        0.740741        0.725403        0        
C2        C        0.40625        0.740741        0.725403        0        
C2        C        0.46875        0.740741        0.725403        0        
C2        C        0.53125        0.740741        0.725403        0        
C2        C        0.59375        0.740741        0.725403        0        
C2        C        0.65625        0.740741        0.725403        0        
C2        C        0.71875        0.740741        0.725403        0        
C2        C        0.78125        0.740741        0.725403        0        
C2        C        0.84375        0.740741        0.725403        0        
C2        C        0.9062500000000001        0.740741        0.725403        0        
C2        C        0.9687500000000001        0.740741        0.725403        0        
C3        C        0.0        0.759259        0.725403        0        
C3        C        0.0625        0.759259        0.725403        0        
C3        C        0.125        0.759259        0.725403        0        
C3        C        0.1875        0.759259        0.725403        0        
C3        C        0.25        0.759259        0.725403        0        
C3        C        0.3125        0.759259        0.725403        0        
C3        C        0.375        0.759259        0.725403        0        
C3        C        0.4375        0.759259        0.725403        0        
C3        C        0.5        0.759259        0.725403        0        
C3        C        0.5625        0.759259        0.725403        0        
C3        C        0.625        0.759259        0.725403        0        
C3        C        0.6875        0.759259        0.725403        0        
C3        C        0.75        0.759259        0.725403        0        
C3        C        0.8125        0.759259        0.725403        0        
C3        C        0.875        0.759259        0.725403        0        
C3        C        0.9375        0.759259        0.725403        0        
C4        C        0.03125        0.703703        0.725403        0        
C4        C        0.09375        0.703703        0.725403        0        
C4        C        0.15625        0.703703        0.725403        0        
C4        C        0.21875        0.703703        0.725403        0        
C4        C        0.28125        0.703703        0.725403        0        
C4        C        0.34375        0.703703        0.725403        0        
C4        C        0.40625        0.703703        0.725403        0        
C4        C        0.46875        0.703703        0.725403        0        
C4        C        0.53125        0.703703        0.725403        0        
C4        C        0.59375        0.703703        0.725403        0        
C4        C        0.65625        0.703703        0.725403        0        
C4        C        0.71875        0.703703        0.725403        0        
C4        C        0.78125        0.703703        0.725403        0        
C4        C        0.84375        0.703703        0.725403        0        
C4        C        0.9062500000000001        0.703703        0.725403        0        
C4        C        0.9687500000000001        0.703703        0.725403        0        
C1        C        0.0        0.796297        0.725403        0        
C1        C        0.0625        0.796297        0.725403        0        
C1        C        0.125        0.796297        0.725403        0        
C1        C        0.1875        0.796297        0.725403        0        
C1        C        0.25        0.796297        0.725403        0        
C1        C        0.3125        0.796297        0.725403        0        
C1        C        0.375        0.796297        0.725403        0        
C1        C        0.4375        0.796297        0.725403        0        
C1        C        0.5        0.796297        0.725403        0        
C1        C        0.5625        0.796297        0.725403        0        
C1        C        0.625        0.796297        0.725403        0        
C1        C        0.6875        0.796297        0.725403        0        
C1        C        0.75        0.796297        0.725403        0        
C1        C        0.8125        0.796297        0.725403        0        
C1        C        0.875        0.796297        0.725403        0        
C1        C        0.9375        0.796297        0.725403        0        
C2        C        0.03125        0.851852        0.725403        0        
C2        C        0.09375        0.851852        0.725403        0        
C2        C        0.15625        0.851852        0.725403        0        
C2        C        0.21875        0.851852        0.725403        0        
C2        C        0.28125        0.851852        0.725403        0        
C2        C        0.34375        0.851852        0.725403        0        
C2        C        0.40625        0.851852        0.725403        0        
C2        C        0.46875        0.851852        0.725403        0        
C2        C        0.53125        0.851852        0.725403        0        
C2        C        0.59375        0.851852        0.725403        0        
C2        C        0.65625        0.851852        0.725403        0        
C2        C        0.71875        0.851852        0.725403        0        
C2        C        0.78125        0.851852        0.725403        0        
C2        C        0.84375        0.851852        0.725403        0        
C2        C        0.9062500000000001        0.851852        0.725403        0        
C2        C        0.9687500000000001        0.851852        0.725403        0        
C3        C        0.0        0.87037        0.725403        0        
C3        C        0.0625        0.87037        0.725403        0        
C3        C        0.125        0.87037        0.725403        0        
C3        C        0.1875        0.87037        0.725403        0        
C3        C        0.25        0.87037        0.725403        0        
C3        C        0.3125        0.87037        0.725403        0        
C3        C        0.375        0.87037        0.725403        0        
C3        C        0.4375        0.87037        0.725403        0        
C3        C        0.5        0.87037        0.725403        0        
C3        C        0.5625        0.87037        0.725403        0        
C3        C        0.625        0.87037        0.725403        0        
C3        C        0.6875        0.87037        0.725403        0        
C3        C        0.75        0.87037        0.725403        0        
C3        C        0.8125        0.87037        0.725403        0        
C3        C        0.875        0.87037        0.725403        0        
C3        C        0.9375        0.87037        0.725403        0        
C4        C        0.03125        0.814814        0.725403        0        
C4        C        0.09375        0.814814        0.725403        0        
C4        C        0.15625        0.814814        0.725403        0        
C4        C        0.21875        0.814814        0.725403        0        
C4        C        0.28125        0.814814        0.725403        0        
C4        C        0.34375        0.814814        0.725403        0        
C4        C        0.40625        0.814814        0.725403        0        
C4        C        0.46875        0.814814        0.725403        0        
C4        C        0.53125        0.814814        0.725403        0        
C4        C        0.59375        0.814814        0.725403        0        
C4        C        0.65625        0.814814        0.725403        0        
C4        C        0.71875        0.814814        0.725403        0        
C4        C        0.78125        0.814814        0.725403        0        
C4        C        0.84375        0.814814        0.725403        0        
C4        C        0.9062500000000001        0.814814        0.725403        0        
C4        C        0.9687500000000001        0.814814        0.725403        0        
C1        C        0.0        0.907408        0.725403        0        
C1        C        0.0625        0.907408        0.725403        0        
C1        C        0.125        0.907408        0.725403        0        
C1        C        0.1875        0.907408        0.725403        0        
C1        C        0.25        0.907408        0.725403        0        
C1        C        0.3125        0.907408        0.725403        0        
C1        C        0.375        0.907408        0.725403        0        
C1        C        0.4375        0.907408        0.725403        0        
C1        C        0.5        0.907408        0.725403        0        
C1        C        0.5625        0.907408        0.725403        0        
C1        C        0.625        0.907408        0.725403        0        
C1        C        0.6875        0.907408        0.725403        0        
C1        C        0.75        0.907408        0.725403        0        
C1        C        0.8125        0.907408        0.725403        0        
C1        C        0.875        0.907408        0.725403        0        
C1        C        0.9375        0.907408        0.725403        0        
C2        C        0.03125        0.962963        0.725403        0        
C2        C        0.09375        0.962963        0.725403        0        
C2        C        0.15625        0.962963        0.725403        0        
C2        C        0.21875        0.962963        0.725403        0        
C2        C        0.28125        0.962963        0.725403        0        
C2        C        0.34375        0.962963        0.725403        0        
C2        C        0.40625        0.962963        0.725403        0        
C2        C        0.46875        0.962963        0.725403        0        
C2        C        0.53125        0.962963        0.725403        0        
C2        C        0.59375        0.962963        0.725403        0        
C2        C        0.65625        0.962963        0.725403        0        
C2        C        0.71875        0.962963        0.725403        0        
C2        C        0.78125        0.962963        0.725403        0        
C2        C        0.84375        0.962963        0.725403        0        
C2        C        0.9062500000000001        0.962963        0.725403        0        
C2        C        0.9687500000000001        0.962963        0.725403        0        
C3        C        0.0        0.9814809999999999        0.725403        0        
C3        C        0.0625        0.9814809999999999        0.725403        0        
C3        C        0.125        0.9814809999999999        0.725403        0        
C3        C        0.1875        0.9814809999999999        0.725403        0        
C3        C        0.25        0.9814809999999999        0.725403        0        
C3        C        0.3125        0.9814809999999999        0.725403        0        
C3        C        0.375        0.9814809999999999        0.725403        0        
C3        C        0.4375        0.9814809999999999        0.725403        0        
C3        C        0.5        0.9814809999999999        0.725403        0        
C3        C        0.5625        0.9814809999999999        0.725403        0        
C3        C        0.625        0.9814809999999999        0.725403        0        
C3        C        0.6875        0.9814809999999999        0.725403        0        
C3        C        0.75        0.9814809999999999        0.725403        0        
C3        C        0.8125        0.9814809999999999        0.725403        0        
C3        C        0.875        0.9814809999999999        0.725403        0        
C3        C        0.9375        0.9814809999999999        0.725403        0        
C4        C        0.03125        0.925925        0.725403        0        
C4        C        0.09375        0.925925        0.725403        0        
C4        C        0.15625        0.925925        0.725403        0        
C4        C        0.21875        0.925925        0.725403        0        
C4        C        0.28125        0.925925        0.725403        0        
C4        C        0.34375        0.925925        0.725403        0        
C4        C        0.40625        0.925925        0.725403        0        
C4        C        0.46875        0.925925        0.725403        0        
C4        C        0.53125        0.925925        0.725403        0        
C4        C        0.59375        0.925925        0.725403        0        
C4        C        0.65625        0.925925        0.725403        0        
C4        C        0.71875        0.925925        0.725403        0        
C4        C        0.78125        0.925925        0.725403        0        
C4        C        0.84375        0.925925        0.725403        0        
C4        C        0.9062500000000001        0.925925        0.725403        0        
C4        C        0.9687500000000001        0.925925        0.725403        0        
C1        C        0.0        0.018519        0.785331        0        
C2        C        0.03125        0.074075        0.785331        0        
C3        C        0.0        0.092592        0.785331        0        
C4        C        0.03125        0.037037        0.785331        0        
C1        C        0.0        0.12963        0.785331        0        
C2        C        0.03125        0.185185        0.785331        0        
C3        C        0.0        0.203703        0.785331        0        
C4        C        0.03125        0.148148        0.785331        0        
C1        C        0.0        0.24074099999999998        0.785331        0        
C2        C        0.03125        0.296297        0.785331        0        
C3        C        0.0        0.314815        0.785331        0        
C4        C        0.03125        0.259259        0.785331        0        
C1        C        0.0        0.351852        0.785331        0        
C2        C        0.03125        0.407408        0.785331        0        
C3        C        0.0        0.42592500000000005        0.785331        0        
C4        C        0.03125        0.37037        0.785331        0        
C1        C        0.0        0.46296300000000007        0.785331        0        
C2        C        0.03125        0.518519        0.785331        0        
C3        C        0.0        0.537037        0.785331        0        
C4        C        0.03125        0.481481        0.785331        0        
C1        C        0.0        0.574075        0.785331        0        
C2        C        0.03125        0.62963        0.785331        0        
C3        C        0.0        0.648148        0.785331        0        
C4        C        0.03125        0.592592        0.785331        0        
C1        C        0.0625        0.018519        0.785331        0        
C2        C        0.09375        0.074075        0.785331        0        
C3        C        0.0625        0.092592        0.785331        0        
C4        C        0.09375        0.037037        0.785331        0        
C1        C        0.0625        0.12963        0.785331        0        
C2        C        0.09375        0.185185        0.785331        0        
C3        C        0.0625        0.203703        0.785331        0        
C4        C        0.09375        0.148148        0.785331        0        
C1        C        0.0625        0.24074099999999998        0.785331        0        
C2        C        0.09375        0.296297        0.785331        0        
C3        C        0.0625        0.314815        0.785331        0        
C4        C        0.09375        0.259259        0.785331        0        
C1        C        0.0625        0.351852        0.785331        0        
C2        C        0.09375        0.407408        0.785331        0        
C3        C        0.0625        0.42592500000000005        0.785331        0        
C4        C        0.09375        0.37037        0.785331        0        
C1        C        0.0625        0.46296300000000007        0.785331        0        
C2        C        0.09375        0.518519        0.785331        0        
C3        C        0.0625        0.537037        0.785331        0        
C4        C        0.09375        0.481481        0.785331        0        
C1        C        0.0625        0.574075        0.785331        0        
C2        C        0.09375        0.62963        0.785331        0        
C3        C        0.0625        0.648148        0.785331        0        
C4        C        0.09375        0.592592        0.785331        0        
C1        C        0.125        0.018519        0.785331        0        
C2        C        0.15625        0.074075        0.785331        0        
C3        C        0.125        0.092592        0.785331        0        
C4        C        0.15625        0.037037        0.785331        0        
C1        C        0.125        0.12963        0.785331        0        
C2        C        0.15625        0.185185        0.785331        0        
C3        C        0.125        0.203703        0.785331        0        
C4        C        0.15625        0.148148        0.785331        0        
C1        C        0.125        0.24074099999999998        0.785331        0        
C2        C        0.15625        0.296297        0.785331        0        
C3        C        0.125        0.314815        0.785331        0        
C4        C        0.15625        0.259259        0.785331        0        
C1        C        0.125        0.351852        0.785331        0        
C2        C        0.15625        0.407408        0.785331        0        
C3        C        0.125        0.42592500000000005        0.785331        0        
C4        C        0.15625        0.37037        0.785331        0        
C1        C        0.125        0.46296300000000007        0.785331        0        
C2        C        0.15625        0.518519        0.785331        0        
C3        C        0.125        0.537037        0.785331        0        
C4        C        0.15625        0.481481        0.785331        0        
C1        C        0.125        0.574075        0.785331        0        
C2        C        0.15625        0.62963        0.785331        0        
C3        C        0.125        0.648148        0.785331        0        
C4        C        0.15625        0.592592        0.785331        0        
C1        C        0.1875        0.018519        0.785331        0        
C2        C        0.21875        0.074075        0.785331        0        
C3        C        0.1875        0.092592        0.785331        0        
C4        C        0.21875        0.037037        0.785331        0        
C1        C        0.1875        0.12963        0.785331        0        
C2        C        0.21875        0.185185        0.785331        0        
C3        C        0.1875        0.203703        0.785331        0        
C4        C        0.21875        0.148148        0.785331        0        
C1        C        0.1875        0.24074099999999998        0.785331        0        
C2        C        0.21875        0.296297        0.785331        0        
C3        C        0.1875        0.314815        0.785331        0        
C4        C        0.21875        0.259259        0.785331        0        
C1        C        0.1875        0.351852        0.785331        0        
C2        C        0.21875        0.407408        0.785331        0        
C3        C        0.1875        0.42592500000000005        0.785331        0        
C4        C        0.21875        0.37037        0.785331        0        
C1        C        0.1875        0.46296300000000007        0.785331        0        
C2        C        0.21875        0.518519        0.785331        0        
C3        C        0.1875        0.537037        0.785331        0        
C4        C        0.21875        0.481481        0.785331        0        
C1        C        0.1875        0.574075        0.785331        0        
C2        C        0.21875        0.62963        0.785331        0        
C3        C        0.1875        0.648148        0.785331        0        
C4        C        0.21875        0.592592        0.785331        0        
C1        C        0.25        0.018519        0.785331        0        
C2        C        0.28125        0.074075        0.785331        0        
C3        C        0.25        0.092592        0.785331        0        
C4        C        0.28125        0.037037        0.785331        0        
C1        C        0.25        0.12963        0.785331        0        
C2        C        0.28125        0.185185        0.785331        0        
C3        C        0.25        0.203703        0.785331        0        
C4        C        0.28125        0.148148        0.785331        0        
C1        C        0.25        0.24074099999999998        0.785331        0        
C2        C        0.28125        0.296297        0.785331        0        
C3        C        0.25        0.314815        0.785331        0        
C4        C        0.28125        0.259259        0.785331        0        
C1        C        0.25        0.351852        0.785331        0        
C2        C        0.28125        0.407408        0.785331        0        
C3        C        0.25        0.42592500000000005        0.785331        0        
C4        C        0.28125        0.37037        0.785331        0        
C1        C        0.25        0.46296300000000007        0.785331        0        
C2        C        0.28125        0.518519        0.785331        0        
C3        C        0.25        0.537037        0.785331        0        
C4        C        0.28125        0.481481        0.785331        0        
C1        C        0.25        0.574075        0.785331        0        
C2        C        0.28125        0.62963        0.785331        0        
C3        C        0.25        0.648148        0.785331        0        
C4        C        0.28125        0.592592        0.785331        0        
C1        C        0.3125        0.018519        0.785331        0        
C2        C        0.34375        0.074075        0.785331        0        
C3        C        0.3125        0.092592        0.785331        0        
C4        C        0.34375        0.037037        0.785331        0        
C1        C        0.3125        0.12963        0.785331        0        
C2        C        0.34375        0.185185        0.785331        0        
C3        C        0.3125        0.203703        0.785331        0        
C4        C        0.34375        0.148148        0.785331        0        
C1        C        0.3125        0.24074099999999998        0.785331        0        
C2        C        0.34375        0.296297        0.785331        0        
C3        C        0.3125        0.314815        0.785331        0        
C4        C        0.34375        0.259259        0.785331        0        
C1        C        0.3125        0.351852        0.785331        0        
C2        C        0.34375        0.407408        0.785331        0        
C3        C        0.3125        0.42592500000000005        0.785331        0        
C4        C        0.34375        0.37037        0.785331        0        
C1        C        0.3125        0.46296300000000007        0.785331        0        
C2        C        0.34375        0.518519        0.785331        0        
C3        C        0.3125        0.537037        0.785331        0        
C4        C        0.34375        0.481481        0.785331        0        
C1        C        0.3125        0.574075        0.785331        0        
C2        C        0.34375        0.62963        0.785331        0        
C3        C        0.3125        0.648148        0.785331        0        
C4        C        0.34375        0.592592        0.785331        0        
C1        C        0.375        0.018519        0.785331        0        
C2        C        0.40625        0.074075        0.785331        0        
C3        C        0.375        0.092592        0.785331        0        
C4        C        0.40625        0.037037        0.785331        0        
C1        C        0.375        0.12963        0.785331        0        
C2        C        0.40625        0.185185        0.785331        0        
C3        C        0.375        0.203703        0.785331        0        
C4        C        0.40625        0.148148        0.785331        0        
C1        C        0.375        0.24074099999999998        0.785331        0        
C2        C        0.40625        0.296297        0.785331        0        
C3        C        0.375        0.314815        0.785331        0        
C4        C        0.40625        0.259259        0.785331        0        
C1        C        0.375        0.351852        0.785331        0        
C2        C        0.40625        0.407408        0.785331        0        
C3        C        0.375        0.42592500000000005        0.785331        0        
C4        C        0.40625        0.37037        0.785331        0        
C1        C        0.375        0.46296300000000007        0.785331        0        
C2        C        0.40625        0.518519        0.785331        0        
C3        C        0.375        0.537037        0.785331        0        
C4        C        0.40625        0.481481        0.785331        0        
C1        C        0.375        0.574075        0.785331        0        
C2        C        0.40625        0.62963        0.785331        0        
C3        C        0.375        0.648148        0.785331        0        
C4        C        0.40625        0.592592        0.785331        0        
C1        C        0.4375        0.018519        0.785331        0        
C2        C        0.46875        0.074075        0.785331        0        
C3        C        0.4375        0.092592        0.785331        0        
C4        C        0.46875        0.037037        0.785331        0        
C1        C        0.4375        0.12963        0.785331        0        
C2        C        0.46875        0.185185        0.785331        0        
C3        C        0.4375        0.203703        0.785331        0        
C4        C        0.46875        0.148148        0.785331        0        
C1        C        0.4375        0.24074099999999998        0.785331        0        
C2        C        0.46875        0.296297        0.785331        0        
C3        C        0.4375        0.314815        0.785331        0        
C4        C        0.46875        0.259259        0.785331        0        
C1        C        0.4375        0.351852        0.785331        0        
C2        C        0.46875        0.407408        0.785331        0        
C3        C        0.4375        0.42592500000000005        0.785331        0        
C4        C        0.46875        0.37037        0.785331        0        
C1        C        0.4375        0.46296300000000007        0.785331        0        
C2        C        0.46875        0.518519        0.785331        0        
C3        C        0.4375        0.537037        0.785331        0        
C4        C        0.46875        0.481481        0.785331        0        
C1        C        0.4375        0.574075        0.785331        0        
C2        C        0.46875        0.62963        0.785331        0        
C3        C        0.4375        0.648148        0.785331        0        
C4        C        0.46875        0.592592        0.785331        0        
C1        C        0.5        0.018519        0.785331        0        
C2        C        0.53125        0.074075        0.785331        0        
C3        C        0.5        0.092592        0.785331        0        
C4        C        0.53125        0.037037        0.785331        0        
C1        C        0.5        0.12963        0.785331        0        
C2        C        0.53125        0.185185        0.785331        0        
C3        C        0.5        0.203703        0.785331        0        
C4        C        0.53125        0.148148        0.785331        0        
C1        C        0.5        0.24074099999999998        0.785331        0        
C2        C        0.53125        0.296297        0.785331        0        
C3        C        0.5        0.314815        0.785331        0        
C4        C        0.53125        0.259259        0.785331        0        
C1        C        0.5        0.351852        0.785331        0        
C2        C        0.53125        0.407408        0.785331        0        
C3        C        0.5        0.42592500000000005        0.785331        0        
C4        C        0.53125        0.37037        0.785331        0        
C1        C        0.5        0.46296300000000007        0.785331        0        
C2        C        0.53125        0.518519        0.785331        0        
C3        C        0.5        0.537037        0.785331        0        
C4        C        0.53125        0.481481        0.785331        0        
C1        C        0.5        0.574075        0.785331        0        
C2        C        0.53125        0.62963        0.785331        0        
C3        C        0.5        0.648148        0.785331        0        
C4        C        0.53125        0.592592        0.785331        0        
C1        C        0.5625        0.018519        0.785331        0        
C2        C        0.59375        0.074075        0.785331        0        
C3        C        0.5625        0.092592        0.785331        0        
C4        C        0.59375        0.037037        0.785331        0        
C1        C        0.5625        0.12963        0.785331        0        
C2        C        0.59375        0.185185        0.785331        0        
C3        C        0.5625        0.203703        0.785331        0        
C4        C        0.59375        0.148148        0.785331        0        
C1        C        0.5625        0.24074099999999998        0.785331        0        
C2        C        0.59375        0.296297        0.785331        0        
C3        C        0.5625        0.314815        0.785331        0        
C4        C        0.59375        0.259259        0.785331        0        
C1        C        0.5625        0.351852        0.785331        0        
C2        C        0.59375        0.407408        0.785331        0        
C3        C        0.5625        0.42592500000000005        0.785331        0        
C4        C        0.59375        0.37037        0.785331        0        
C1        C        0.5625        0.46296300000000007        0.785331        0        
C2        C        0.59375        0.518519        0.785331        0        
C3        C        0.5625        0.537037        0.785331        0        
C4        C        0.59375        0.481481        0.785331        0        
C1        C        0.5625        0.574075        0.785331        0        
C2        C        0.59375        0.62963        0.785331        0        
C3        C        0.5625        0.648148        0.785331        0        
C4        C        0.59375        0.592592        0.785331        0        
C1        C        0.625        0.018519        0.785331        0        
C2        C        0.65625        0.074075        0.785331        0        
C3        C        0.625        0.092592        0.785331        0        
C4        C        0.65625        0.037037        0.785331        0        
C1        C        0.625        0.12963        0.785331        0        
C2        C        0.65625        0.185185        0.785331        0        
C3        C        0.625        0.203703        0.785331        0        
C4        C        0.65625        0.148148        0.785331        0        
C1        C        0.625        0.24074099999999998        0.785331        0        
C2        C        0.65625        0.296297        0.785331        0        
C3        C        0.625        0.314815        0.785331        0        
C4        C        0.65625        0.259259        0.785331        0        
C1        C        0.625        0.351852        0.785331        0        
C2        C        0.65625        0.407408        0.785331        0        
C3        C        0.625        0.42592500000000005        0.785331        0        
C4        C        0.65625        0.37037        0.785331        0        
C1        C        0.625        0.46296300000000007        0.785331        0        
C2        C        0.65625        0.518519        0.785331        0        
C3        C        0.625        0.537037        0.785331        0        
C4        C        0.65625        0.481481        0.785331        0        
C1        C        0.625        0.574075        0.785331        0        
C2        C        0.65625        0.62963        0.785331        0        
C3        C        0.625        0.648148        0.785331        0        
C4        C        0.65625        0.592592        0.785331        0        
C1        C        0.6875        0.018519        0.785331        0        
C2        C        0.71875        0.074075        0.785331        0        
C3        C        0.6875        0.092592        0.785331        0        
C4        C        0.71875        0.037037        0.785331        0        
C1        C        0.6875        0.12963        0.785331        0        
C2        C        0.71875        0.185185        0.785331        0        
C3        C        0.6875        0.203703        0.785331        0        
C4        C        0.71875        0.148148        0.785331        0        
C1        C        0.6875        0.24074099999999998        0.785331        0        
C2        C        0.71875        0.296297        0.785331        0        
C3        C        0.6875        0.314815        0.785331        0        
C4        C        0.71875        0.259259        0.785331        0        
C1        C        0.6875        0.351852        0.785331        0        
C2        C        0.71875        0.407408        0.785331        0        
C3        C        0.6875        0.42592500000000005        0.785331        0        
C4        C        0.71875        0.37037        0.785331        0        
C1        C        0.6875        0.46296300000000007        0.785331        0        
C2        C        0.71875        0.518519        0.785331        0        
C3        C        0.6875        0.537037        0.785331        0        
C4        C        0.71875        0.481481        0.785331        0        
C1        C        0.6875        0.574075        0.785331        0        
C2        C        0.71875        0.62963        0.785331        0        
C3        C        0.6875        0.648148        0.785331        0        
C4        C        0.71875        0.592592        0.785331        0        
C1        C        0.75        0.018519        0.785331        0        
C2        C        0.78125        0.074075        0.785331        0        
C3        C        0.75        0.092592        0.785331        0        
C4        C        0.78125        0.037037        0.785331        0        
C1        C        0.75        0.12963        0.785331        0        
C2        C        0.78125        0.185185        0.785331        0        
C3        C        0.75        0.203703        0.785331        0        
C4        C        0.78125        0.148148        0.785331        0        
C1        C        0.75        0.24074099999999998        0.785331        0        
C2        C        0.78125        0.296297        0.785331        0        
C3        C        0.75        0.314815        0.785331        0        
C4        C        0.78125        0.259259        0.785331        0        
C1        C        0.75        0.351852        0.785331        0        
C2        C        0.78125        0.407408        0.785331        0        
C3        C        0.75        0.42592500000000005        0.785331        0        
C4        C        0.78125        0.37037        0.785331        0        
C1        C        0.75        0.46296300000000007        0.785331        0        
C2        C        0.78125        0.518519        0.785331        0        
C3        C        0.75        0.537037        0.785331        0        
C4        C        0.78125        0.481481        0.785331        0        
C1        C        0.75        0.574075        0.785331        0        
C2        C        0.78125        0.62963        0.785331        0        
C3        C        0.75        0.648148        0.785331        0        
C4        C        0.78125        0.592592        0.785331        0        
C1        C        0.8125        0.018519        0.785331        0        
C2        C        0.84375        0.074075        0.785331        0        
C3        C        0.8125        0.092592        0.785331        0        
C4        C        0.84375        0.037037        0.785331        0        
C1        C        0.8125        0.12963        0.785331        0        
C2        C        0.84375        0.185185        0.785331        0        
C3        C        0.8125        0.203703        0.785331        0        
C4        C        0.84375        0.148148        0.785331        0        
C1        C        0.8125        0.24074099999999998        0.785331        0        
C2        C        0.84375        0.296297        0.785331        0        
C3        C        0.8125        0.314815        0.785331        0        
C4        C        0.84375        0.259259        0.785331        0        
C1        C        0.8125        0.351852        0.785331        0        
C2        C        0.84375        0.407408        0.785331        0        
C3        C        0.8125        0.42592500000000005        0.785331        0        
C4        C        0.84375        0.37037        0.785331        0        
C1        C        0.8125        0.46296300000000007        0.785331        0        
C2        C        0.84375        0.518519        0.785331        0        
C3        C        0.8125        0.537037        0.785331        0        
C4        C        0.84375        0.481481        0.785331        0        
C1        C        0.8125        0.574075        0.785331        0        
C2        C        0.84375        0.62963        0.785331        0        
C3        C        0.8125        0.648148        0.785331        0        
C4        C        0.84375        0.592592        0.785331        0        
C1        C        0.875        0.018519        0.785331        0        
C2        C        0.9062500000000001        0.074075        0.785331        0        
C3        C        0.875        0.092592        0.785331        0        
C4        C        0.9062500000000001        0.037037        0.785331        0        
C1        C        0.875        0.12963        0.785331        0        
C2        C        0.9062500000000001        0.185185        0.785331        0        
C3        C        0.875        0.203703        0.785331        0        
C4        C        0.9062500000000001        0.148148        0.785331        0        
C1        C        0.875        0.24074099999999998        0.785331        0        
C2        C        0.9062500000000001        0.296297        0.785331        0        
C3        C        0.875        0.314815        0.785331        0        
C4        C        0.9062500000000001        0.259259        0.785331        0        
C1        C        0.875        0.351852        0.785331        0        
C2        C        0.9062500000000001        0.407408        0.785331        0        
C3        C        0.875        0.42592500000000005        0.785331        0        
C4        C        0.9062500000000001        0.37037        0.785331        0        
C1        C        0.875        0.46296300000000007        0.785331        0        
C2        C        0.9062500000000001        0.518519        0.785331        0        
C3        C        0.875        0.537037        0.785331        0        
C4        C        0.9062500000000001        0.481481        0.785331        0        
C1        C        0.875        0.574075        0.785331        0        
C2        C        0.9062500000000001        0.62963        0.785331        0        
C3        C        0.875        0.648148        0.785331        0        
C4        C        0.9062500000000001        0.592592        0.785331        0        
C1        C        0.9375        0.018519        0.785331        0        
C2        C        0.9687500000000001        0.074075        0.785331        0        
C3        C        0.9375        0.092592        0.785331        0        
C4        C        0.9687500000000001        0.037037        0.785331        0        
C1        C        0.9375        0.12963        0.785331        0        
C2        C        0.9687500000000001        0.185185        0.785331        0        
C3        C        0.9375        0.203703        0.785331        0        
C4        C        0.9687500000000001        0.148148        0.785331        0        
C1        C        0.9375        0.24074099999999998        0.785331        0        
C2        C        0.9687500000000001        0.296297        0.785331        0        
C3        C        0.9375        0.314815        0.785331        0        
C4        C        0.9687500000000001        0.259259        0.785331        0        
C1        C        0.9375        0.351852        0.785331        0        
C2        C        0.9687500000000001        0.407408        0.785331        0        
C3        C        0.9375        0.42592500000000005        0.785331        0        
C4        C        0.9687500000000001        0.37037        0.785331        0        
C1        C        0.9375        0.46296300000000007        0.785331        0        
C2        C        0.9687500000000001        0.518519        0.785331        0        
C3        C        0.9375        0.537037        0.785331        0        
C4        C        0.9687500000000001        0.481481        0.785331        0        
C1        C        0.9375        0.574075        0.785331        0        
C2        C        0.9687500000000001        0.62963        0.785331        0        
C3        C        0.9375        0.648148        0.785331        0        
C4        C        0.9687500000000001        0.592592        0.785331        0        
C1        C        0.0        0.685186        0.785331        0        
C1        C        0.0625        0.685186        0.785331        0        
C1        C        0.125        0.685186        0.785331        0        
C1        C        0.1875        0.685186        0.785331        0        
C1        C        0.25        0.685186        0.785331        0        
C1        C        0.3125        0.685186        0.785331        0        
C1        C        0.375        0.685186        0.785331        0        
C1        C        0.4375        0.685186        0.785331        0        
C1        C        0.5        0.685186        0.785331        0        
C1        C        0.5625        0.685186        0.785331        0        
C1        C        0.625        0.685186        0.785331        0        
C1        C        0.6875        0.685186        0.785331        0        
C1        C        0.75        0.685186        0.785331        0        
C1        C        0.8125        0.685186        0.785331        0        
C1        C        0.875        0.685186        0.785331        0        
C1        C        0.9375        0.685186        0.785331        0        
C2        C        0.03125        0.740741        0.785331        0        
C2        C        0.09375        0.740741        0.785331        0        
C2        C        0.15625        0.740741        0.785331        0        
C2        C        0.21875        0.740741        0.785331        0        
C2        C        0.28125        0.740741        0.785331        0        
C2        C        0.34375        0.740741        0.785331        0        
C2        C        0.40625        0.740741        0.785331        0        
C2        C        0.46875        0.740741        0.785331        0        
C2        C        0.53125        0.740741        0.785331        0        
C2        C        0.59375        0.740741        0.785331        0        
C2        C        0.65625        0.740741        0.785331        0        
C2        C        0.71875        0.740741        0.785331        0        
C2        C        0.78125        0.740741        0.785331        0        
C2        C        0.84375        0.740741        0.785331        0        
C2        C        0.9062500000000001        0.740741        0.785331        0        
C2        C        0.9687500000000001        0.740741        0.785331        0        
C3        C        0.0        0.759259        0.785331        0        
C3        C        0.0625        0.759259        0.785331        0        
C3        C        0.125        0.759259        0.785331        0        
C3        C        0.1875        0.759259        0.785331        0        
C3        C        0.25        0.759259        0.785331        0        
C3        C        0.3125        0.759259        0.785331        0        
C3        C        0.375        0.759259        0.785331        0        
C3        C        0.4375        0.759259        0.785331        0        
C3        C        0.5        0.759259        0.785331        0        
C3        C        0.5625        0.759259        0.785331        0        
C3        C        0.625        0.759259        0.785331        0        
C3        C        0.6875        0.759259        0.785331        0        
C3        C        0.75        0.759259        0.785331        0        
C3        C        0.8125        0.759259        0.785331        0        
C3        C        0.875        0.759259        0.785331        0        
C3        C        0.9375        0.759259        0.785331        0        
C4        C        0.03125        0.703703        0.785331        0        
C4        C        0.09375        0.703703        0.785331        0        
C4        C        0.15625        0.703703        0.785331        0        
C4        C        0.21875        0.703703        0.785331        0        
C4        C        0.28125        0.703703        0.785331        0        
C4        C        0.34375        0.703703        0.785331        0        
C4        C        0.40625        0.703703        0.785331        0        
C4        C        0.46875        0.703703        0.785331        0        
C4        C        0.53125        0.703703        0.785331        0        
C4        C        0.59375        0.703703        0.785331        0        
C4        C        0.65625        0.703703        0.785331        0        
C4        C        0.71875        0.703703        0.785331        0        
C4        C        0.78125        0.703703        0.785331        0        
C4        C        0.84375        0.703703        0.785331        0        
C4        C        0.9062500000000001        0.703703        0.785331        0        
C4        C        0.9687500000000001        0.703703        0.785331        0        
C1        C        0.0        0.796297        0.785331        0        
C1        C        0.0625        0.796297        0.785331        0        
C1        C        0.125        0.796297        0.785331        0        
C1        C        0.1875        0.796297        0.785331        0        
C1        C        0.25        0.796297        0.785331        0        
C1        C        0.3125        0.796297        0.785331        0        
C1        C        0.375        0.796297        0.785331        0        
C1        C        0.4375        0.796297        0.785331        0        
C1        C        0.5        0.796297        0.785331        0        
C1        C        0.5625        0.796297        0.785331        0        
C1        C        0.625        0.796297        0.785331        0        
C1        C        0.6875        0.796297        0.785331        0        
C1        C        0.75        0.796297        0.785331        0        
C1        C        0.8125        0.796297        0.785331        0        
C1        C        0.875        0.796297        0.785331        0        
C1        C        0.9375        0.796297        0.785331        0        
C2        C        0.03125        0.851852        0.785331        0        
C2        C        0.09375        0.851852        0.785331        0        
C2        C        0.15625        0.851852        0.785331        0        
C2        C        0.21875        0.851852        0.785331        0        
C2        C        0.28125        0.851852        0.785331        0        
C2        C        0.34375        0.851852        0.785331        0        
C2        C        0.40625        0.851852        0.785331        0        
C2        C        0.46875        0.851852        0.785331        0        
C2        C        0.53125        0.851852        0.785331        0        
C2        C        0.59375        0.851852        0.785331        0        
C2        C        0.65625        0.851852        0.785331        0        
C2        C        0.71875        0.851852        0.785331        0        
C2        C        0.78125        0.851852        0.785331        0        
C2        C        0.84375        0.851852        0.785331        0        
C2        C        0.9062500000000001        0.851852        0.785331        0        
C2        C        0.9687500000000001        0.851852        0.785331        0        
C3        C        0.0        0.87037        0.785331        0        
C3        C        0.0625        0.87037        0.785331        0        
C3        C        0.125        0.87037        0.785331        0        
C3        C        0.1875        0.87037        0.785331        0        
C3        C        0.25        0.87037        0.785331        0        
C3        C        0.3125        0.87037        0.785331        0        
C3        C        0.375        0.87037        0.785331        0        
C3        C        0.4375        0.87037        0.785331        0        
C3        C        0.5        0.87037        0.785331        0        
C3        C        0.5625        0.87037        0.785331        0        
C3        C        0.625        0.87037        0.785331        0        
C3        C        0.6875        0.87037        0.785331        0        
C3        C        0.75        0.87037        0.785331        0        
C3        C        0.8125        0.87037        0.785331        0        
C3        C        0.875        0.87037        0.785331        0        
C3        C        0.9375        0.87037        0.785331        0        
C4        C        0.03125        0.814814        0.785331        0        
C4        C        0.09375        0.814814        0.785331        0        
C4        C        0.15625        0.814814        0.785331        0        
C4        C        0.21875        0.814814        0.785331        0        
C4        C        0.28125        0.814814        0.785331        0        
C4        C        0.34375        0.814814        0.785331        0        
C4        C        0.40625        0.814814        0.785331        0        
C4        C        0.46875        0.814814        0.785331        0        
C4        C        0.53125        0.814814        0.785331        0        
C4        C        0.59375        0.814814        0.785331        0        
C4        C        0.65625        0.814814        0.785331        0        
C4        C        0.71875        0.814814        0.785331        0        
C4        C        0.78125        0.814814        0.785331        0        
C4        C        0.84375        0.814814        0.785331        0        
C4        C        0.9062500000000001        0.814814        0.785331        0        
C4        C        0.9687500000000001        0.814814        0.785331        0        
C1        C        0.0        0.907408        0.785331        0        
C1        C        0.0625        0.907408        0.785331        0        
C1        C        0.125        0.907408        0.785331        0        
C1        C        0.1875        0.907408        0.785331        0        
C1        C        0.25        0.907408        0.785331        0        
C1        C        0.3125        0.907408        0.785331        0        
C1        C        0.375        0.907408        0.785331        0        
C1        C        0.4375        0.907408        0.785331        0        
C1        C        0.5        0.907408        0.785331        0        
C1        C        0.5625        0.907408        0.785331        0        
C1        C        0.625        0.907408        0.785331        0        
C1        C        0.6875        0.907408        0.785331        0        
C1        C        0.75        0.907408        0.785331        0        
C1        C        0.8125        0.907408        0.785331        0        
C1        C        0.875        0.907408        0.785331        0        
C1        C        0.9375        0.907408        0.785331        0        
C2        C        0.03125        0.962963        0.785331        0        
C2        C        0.09375        0.962963        0.785331        0        
C2        C        0.15625        0.962963        0.785331        0        
C2        C        0.21875        0.962963        0.785331        0        
C2        C        0.28125        0.962963        0.785331        0        
C2        C        0.34375        0.962963        0.785331        0        
C2        C        0.40625        0.962963        0.785331        0        
C2        C        0.46875        0.962963        0.785331        0        
C2        C        0.53125        0.962963        0.785331        0        
C2        C        0.59375        0.962963        0.785331        0        
C2        C        0.65625        0.962963        0.785331        0        
C2        C        0.71875        0.962963        0.785331        0        
C2        C        0.78125        0.962963        0.785331        0        
C2        C        0.84375        0.962963        0.785331        0        
C2        C        0.9062500000000001        0.962963        0.785331        0        
C2        C        0.9687500000000001        0.962963        0.785331        0        
C3        C        0.0        0.9814809999999999        0.785331        0        
C3        C        0.0625        0.9814809999999999        0.785331        0        
C3        C        0.125        0.9814809999999999        0.785331        0        
C3        C        0.1875        0.9814809999999999        0.785331        0        
C3        C        0.25        0.9814809999999999        0.785331        0        
C3        C        0.3125        0.9814809999999999        0.785331        0        
C3        C        0.375        0.9814809999999999        0.785331        0        
C3        C        0.4375        0.9814809999999999        0.785331        0        
C3        C        0.5        0.9814809999999999        0.785331        0        
C3        C        0.5625        0.9814809999999999        0.785331        0        
C3        C        0.625        0.9814809999999999        0.785331        0        
C3        C        0.6875        0.9814809999999999        0.785331        0        
C3        C        0.75        0.9814809999999999        0.785331        0        
C3        C        0.8125        0.9814809999999999        0.785331        0        
C3        C        0.875        0.9814809999999999        0.785331        0        
C3        C        0.9375        0.9814809999999999        0.785331        0        
C4        C        0.03125        0.925925        0.785331        0        
C4        C        0.09375        0.925925        0.785331        0        
C4        C        0.15625        0.925925        0.785331        0        
C4        C        0.21875        0.925925        0.785331        0        
C4        C        0.28125        0.925925        0.785331        0        
C4        C        0.34375        0.925925        0.785331        0        
C4        C        0.40625        0.925925        0.785331        0        
C4        C        0.46875        0.925925        0.785331        0        
C4        C        0.53125        0.925925        0.785331        0        
C4        C        0.59375        0.925925        0.785331        0        
C4        C        0.65625        0.925925        0.785331        0        
C4        C        0.71875        0.925925        0.785331        0        
C4        C        0.78125        0.925925        0.785331        0        
C4        C        0.84375        0.925925        0.785331        0        
C4        C        0.9062500000000001        0.925925        0.785331        0        
C4        C        0.9687500000000001        0.925925        0.785331        0        
C_COOH        C        0.0        0.018519        0.36171735241502684        0.55        
C_COOH        C        0.0        0.203703        0.36171735241502684        0.55        
C_COOH        C        0.0        0.351852        0.36171735241502684        0.55        
C_COOH        C        0.0        0.537037        0.36171735241502684        0.55        
C_COOH        C        0.25        0.018519        0.36171735241502684        0.55        
C_COOH        C        0.25        0.203703        0.36171735241502684        0.55        
C_COOH        C        0.25        0.351852        0.36171735241502684        0.55        
C_COOH        C        0.25        0.537037        0.36171735241502684        0.55        
C_COOH        C        0.5        0.018519        0.36171735241502684        0.55        
C_COOH        C        0.5        0.203703        0.36171735241502684        0.55        
C_COOH        C        0.5        0.351852        0.36171735241502684        0.55        
C_COOH        C        0.5        0.537037        0.36171735241502684        0.55        
C_COOH        C        0.75        0.018519        0.36171735241502684        0.55        
C_COOH        C        0.75        0.203703        0.36171735241502684        0.55        
C_COOH        C        0.75        0.351852        0.36171735241502684        0.55        
C_COOH        C        0.75        0.537037        0.36171735241502684        0.55        
C_COOH        C        0.0        0.685186        0.36171735241502684        0.55        
C_COOH        C        0.25        0.685186        0.36171735241502684        0.55        
C_COOH        C        0.5        0.685186        0.36171735241502684        0.55        
C_COOH        C        0.75        0.685186        0.36171735241502684        0.55        
C_COOH        C        0.0        0.87037        0.36171735241502684        0.55        
C_COOH        C        0.25        0.87037        0.36171735241502684        0.55        
C_COOH        C        0.5        0.87037        0.36171735241502684        0.55        
C_COOH        C        0.75        0.87037        0.36171735241502684        0.55        
C_COOH        C        0.0        0.018519        0.6382826475849732        0.55        
C_COOH        C        0.0        0.203703        0.6382826475849732        0.55        
C_COOH        C        0.0        0.351852        0.6382826475849732        0.55        
C_COOH        C        0.0        0.537037        0.6382826475849732        0.55        
C_COOH        C        0.25        0.018519        0.6382826475849732        0.55        
C_COOH        C        0.25        0.203703        0.6382826475849732        0.55        
C_COOH        C        0.25        0.351852        0.6382826475849732        0.55        
C_COOH        C        0.25        0.537037        0.6382826475849732        0.55        
C_COOH        C        0.5        0.018519        0.6382826475849732        0.55        
C_COOH        C        0.5        0.203703        0.6382826475849732        0.55        
C_COOH        C        0.5        0.351852        0.6382826475849732        0.55        
C_COOH        C        0.5        0.537037        0.6382826475849732        0.55        
C_COOH        C        0.75        0.018519        0.6382826475849732        0.55        
C_COOH        C        0.75        0.203703        0.6382826475849732        0.55        
C_COOH        C        0.75        0.351852        0.6382826475849732        0.55        
C_COOH        C        0.75        0.537037        0.6382826475849732        0.55        
C_COOH        C        0.0        0.685186        0.6382826475849732        0.55        
C_COOH        C        0.25        0.685186        0.6382826475849732        0.55        
C_COOH        C        0.5        0.685186        0.6382826475849732        0.55        
C_COOH        C        0.75        0.685186        0.6382826475849732        0.55        
C_COOH        C        0.0        0.87037        0.6382826475849732        0.55        
C_COOH        C        0.25        0.87037        0.6382826475849732        0.55        
C_COOH        C        0.5        0.87037        0.6382826475849732        0.55        
C_COOH        C        0.75        0.87037        0.6382826475849732        0.55        
O_COOH_d        O        -0.013086568829439508        0.04485068525955082        0.36950016100178895        -0.5        
O_COOH_d        O        -0.026531183798962864        0.21519187084349978        0.36950016100178895        -0.5        
O_COOH_d        O        -0.004123556242533716        0.38110826415459687        0.36950016100178895        -0.5        
O_COOH_d        O        -0.022926141532238882        0.5549228290201761        0.36950016100178895        -0.5        
O_COOH_d        O        0.26675280913142496        0.0425618993169464        0.36950016100178895        -0.5        
O_COOH_d        O        0.27802001252336295        0.2105145971327668        0.36950016100178895        -0.5        
O_COOH_d        O        0.2274952308076106        0.3702932130562106        0.36950016100178895        -0.5        
O_COOH_d        O        0.2491563245811683        0.5665852539981945        0.36950016100178895        -0.5        
O_COOH_d        O        0.5225655000911605        0.036881832152184844        0.36950016100178895        -0.5        
O_COOH_d        O        0.48293034767474885        0.22750986467071954        0.36950016100178895        -0.5        
O_COOH_d        O        0.5190340367096364        0.3740335572885381        0.36950016100178895        -0.5        
O_COOH_d        O        0.5072529150927055        0.5656448392623932        0.36950016100178895        -0.5        
O_COOH_d        O        0.7354454269370407        0.044025716220391906        0.36950016100178895        -0.5        
O_COOH_d        O        0.7472805947479069        0.233131822559927        0.36950016100178895        -0.5        
O_COOH_d        O        0.7239186878350942        0.36437953573247484        0.36950016100178895        -0.5        
O_COOH_d        O        0.7263902585997313        0.553959641264695        0.36950016100178895        -0.5        
O_COOH_d        O        -0.01682964322994852        0.7091722796634585        0.36950016100178895        -0.5        
O_COOH_d        O        0.2681189784572964        0.7081610222098205        0.36950016100178895        -0.5        
O_COOH_d        O        0.528076127180099        0.6917495602014738        0.36950016100178895        -0.5        
O_COOH_d        O        0.7712734527583248        0.7051080860373116        0.36950016100178895        -0.5        
O_COOH_d        O        0.0023003950939344112        0.8998364614179429        0.36950016100178895        -0.5        
O_COOH_d        O        0.23178297377675697        0.8932631626729123        0.36950016100178895        -0.5        
O_COOH_d        O        0.5120977821050896        0.897195402363684        0.36950016100178895        -0.5        
O_COOH_d        O        0.7533957256636697        0.8997246729605799        0.36950016100178895        -0.5        
O_COOH_d        O        0.028330288753159454        0.02380776375471767        0.630499838998211        -0.5        
O_COOH_d        O        -0.011504293372586393        0.23080216988677332        0.630499838998211        -0.5        
O_COOH_d        O        0.02812543176587442        0.35818918606547046        0.630499838998211        -0.5        
O_COOH_d        O        -0.02663921083424914        0.548259327244006        0.630499838998211        -0.5        
O_COOH_d        O        0.27809820500969773        0.02498222274660744        0.630499838998211        -0.5        
O_COOH_d        O        0.27784732645687726        0.21122400531103605        0.630499838998211        -0.5        
O_COOH_d        O        0.27758681707284055        0.3603246171499152        0.630499838998211        -0.5        
O_COOH_d        O        0.26322603763188607        0.5632951416123879        0.630499838998211        -0.5        
O_COOH_d        O        0.5226276873822941        0.03680100304118664        0.630499838998211        -0.5        
O_COOH_d        O        0.4717999908976844        0.2096806957611112        0.630499838998211        -0.5        
O_COOH_d        O        0.4766729654762648        0.3691829135878273        0.630499838998211        -0.5        
O_COOH_d        O        0.4713280649675796        0.5397658154299131        0.630499838998211        -0.5        
O_COOH_d        O        0.7226419993288699        0.027740462063270615        0.630499838998211        -0.5        
O_COOH_d        O        0.7784179332473969        0.20847051433289995        0.630499838998211        -0.5        
O_COOH_d        O        0.7666753165566467        0.37595160797561816        0.630499838998211        -0.5        
O_COOH_d        O        0.778279368293081        0.5426055751587119        0.630499838998211        -0.5        
O_COOH_d        O        0.01010450695354187        0.7128671045021735        0.630499838998211        -0.5        
O_COOH_d        O        0.27470100933713965        0.7003785431884073        0.630499838998211        -0.5        
O_COOH_d        O        0.5281407547480065        0.6914510839581043        0.630499838998211        -0.5        
O_COOH_d        O        0.7440244603249923        0.714103420792644        0.630499838998211        -0.5        
O_COOH_d        O        -0.027428305883536196        0.8793686625865188        0.630499838998211        -0.5        
O_COOH_d        O        0.27448858358642647        0.8859207517331694        0.630499838998211        -0.5        
O_COOH_d        O        0.4738832889103563        0.882819569241192        0.630499838998211        -0.5        
O_COOH_d        O        0.7786460693764004        0.8733714888695205        0.630499838998211        -0.5        
O_COOH        O        0.012741700254235041        -0.007118769925703698        0.37605973166368517        -0.58        
O_COOH        O        0.025832011107137568        0.19251689381316045        0.37605973166368517        -0.58        
O_COOH        O        0.004014888723593305        0.32336672221060714        0.37605973166368517        -0.58        
O_COOH        O        0.022321972030805264        0.5196225138085615        0.37605973166368517        -0.58        
O_COOH        O        0.2336886753777024        -0.004890300048926887        0.37605973166368517        -0.58        
O_COOH        O        0.2227183950701084        0.1970709079635392        0.37605973166368517        -0.58        
O_COOH        O        0.2719117040591342        0.33389676573277727        0.37605973166368517        -0.58        
O_COOH        O        0.2508214421548326        0.5082674271357948        0.37605973166368517        -0.58        
O_COOH        O        0.47802916547524127        0.0006400810754594116        0.37605973166368517        -0.58        
O_COOH        O        0.5166198180903674        0.1805235144082493        0.37605973166368517        -0.58        
O_COOH        O        0.48146756468076585        0.3302549902852083        0.37605973166368517        -0.58        
O_COOH        O        0.49293821999600257        0.5091830592494844        0.37605973166368517        -0.58        
O_COOH        O        0.7641710183710952        -0.006315541183854991        0.37605973166368517        -0.58        
O_COOH        O        0.7526477411339492        0.17504971121355192        0.37605973166368517        -0.58        
O_COOH        O        0.7753939948792977        0.3396546007192712        0.37605973166368517        -0.58        
O_COOH        O        0.7729875570841369        0.5205603188076291        0.37605973166368517        -0.58        
O_COOH        O        0.016386133922233332        0.6618318275145041        0.37605973166368517        -0.58        
O_COOH        O        0.23235850852696732        0.6628164354374864        0.37605973166368517        -0.58        
O_COOH        O        0.4726637591953181        0.6787954084111895        0.37605973166368517        -0.58        
O_COOH        O        0.72928716365978        0.6657889179966971        0.37605973166368517        -0.58        
O_COOH        O        -0.002239773093714779        0.8416800642472615        0.37605973166368517        -0.58        
O_COOH        O        0.2677369553994883        0.8480801377411099        0.37605973166368517        -0.58        
O_COOH        O        0.48822102910754317        0.8442515238301124        0.37605973166368517        -0.58        
O_COOH        O        0.7466937614346429        0.8417889067585542        0.37605973166368517        -0.58        
O_COOH        O        -0.027583704492244995        0.01336961031991215        0.6239402683363149        -0.58        
O_COOH        O        0.011201122288106793        0.17731797086546502        0.6239402683363149        -0.58        
O_COOH        O        -0.027384246073388893        0.3456818169402591        0.6239402683363149        -0.58        
O_COOH        O        0.02593719132060001        0.5261104132252918        0.6239402683363149        -0.58        
O_COOH        O        0.22264226317977137        0.01222610168670295        0.6239402683363149        -0.58        
O_COOH        O        0.22288653036408193        0.196380194722871        0.6239402683363149        -0.58        
O_COOH        O        0.22314017457961877        0.34360266058184374        0.6239402683363149        -0.58        
O_COOH        O        0.23712250634577203        0.5114708356356902        0.6239402683363149        -0.58        
O_COOH        O        0.4779686169973648        0.0007187801078473817        0.6239402683363149        -0.58        
O_COOH        O        0.5274568580833877        0.1978828336453366        0.6239402683363149        -0.58        
O_COOH        O        0.5227123003436155        0.33497780562970975        0.6239402683363149        -0.58        
O_COOH        O        0.5279163474133998        0.5343800966733719        0.6239402683363149        -0.58        
O_COOH        O        0.7766370389863018        0.00954054987702561        0.6239402683363149        -0.58        
O_COOH        O        0.7223309606969988        0.1990611233263431        0.6239402683363149        -0.58        
O_COOH        O        0.7337641258011574        0.3283874857279996        0.6239402683363149        -0.58        
O_COOH        O        0.7224658740678485        0.5316151727479342        0.6239402683363149        -0.58        
O_COOH        O        -0.00983822425090003        0.6582343718941356        0.6239402683363149        -0.58        
O_COOH        O        0.22594993301507174        0.6703938238437311        0.6239402683363149        -0.58        
O_COOH        O        0.4726008347489511        0.6790860189505594        0.6239402683363149        -0.58        
O_COOH        O        0.7558180670876048        0.6570306360793539        0.6239402683363149        -0.58        
O_COOH        O        0.026705491454971225        0.8616084779493547        0.6239402683363149        -0.58        
O_COOH        O        0.22615676073875893        0.8552290551202136        0.6239402683363149        -0.58        
O_COOH        O        0.5254284609409684        0.8582485125701733        0.6239402683363149        -0.58        
O_COOH        O        0.7221088366084919        0.8674476089599727        0.6239402683363149        -0.58        
H_COOH        H        0.02168660499810588        -0.025116949544979637        0.36561679785330947        0.45        
H_COOH        H        0.043966551559787015        0.18466404432685687        0.36561679785330947        0.45        
H_COOH        H        0.0068334134473911935        0.3033695404103109        0.36561679785330947        0.45        
H_COOH        H        0.037992401371233143        0.5073972285610848        0.36561679785330947        0.45        
H_COOH        H        0.22223782956579344        -0.021324053384848        0.36561679785330947        0.45        
H_COOH        H        0.20356621345473205        0.1924150590316819        0.36561679785330947        0.45        
H_COOH        H        0.28729411784019127        0.3212918655256161        0.36561679785330947        0.45        
H_COOH        H        0.2513981094504814        0.48807066503517693        0.36561679785330947        0.45        
H_COOH        H        0.46260524103454537        -0.011911244376593182        0.36561679785330947        0.45        
H_COOH        H        0.5282872319136824        0.16425109499065846        0.36561679785330947        0.45        
H_COOH        H        0.4684574588632633        0.31509349764319966        0.36561679785330947        0.45        
H_COOH        H        0.48798072231535106        0.4896290875044678        0.36561679785330947        0.45        
H_COOH        H        0.7741193303643051        -0.023749839653832365        0.36561679785330947        0.45        
H_COOH        H        0.7545065034464381        0.15493458264519527        0.36561679785330947        0.45        
H_COOH        H        0.793221039993325        0.33109180513374376        0.36561679785330947        0.45        
H_COOH        H        0.7891252392073335        0.5089933896835587        0.36561679785330947        0.45        
H_COOH        H        0.027889497219919648        0.6454367747282596        0.36561679785330947        0.45        
H_COOH        H        0.21997386145338402        0.6471125952763551        0.36561679785330947        0.45        
H_COOH        H        0.45347322220461134        0.6743090971749874        0.36561679785330947        0.45        
H_COOH        H        0.7147463767677738        0.6521718145201869        0.36561679785330947        0.45        
H_COOH        H        -0.0038121344404278743        0.8215392088437038        0.36561679785330947        0.45        
H_COOH        H        0.28018861988139093        0.8324322500431158        0.36561679785330947        0.45        
H_COOH        H        0.4799519778418902        0.8259158797062403        0.36561679785330947        0.45        
H_COOH        H        0.7443727219785624        0.8217244607725916        0.36561679785330947        0.45        
H_COOH        H        -0.046947965481213494        0.009754645342051532        0.6343832021466905        0.45        
H_COOH        H        0.019064513349928553        0.15879520172449207        0.6343832021466905        0.45        
H_COOH        H        -0.046608483633660124        0.3413502364902103        0.6343832021466905        0.45        
H_COOH        H        0.044145570191324694        0.5184397510746172        0.6343832021466905        0.45        
H_COOH        H        0.2034366355961609        0.007808372902304779        0.6343832021466905        0.45        
H_COOH        H        0.20385238277545767        0.1912394525648484        0.6343832021466905        0.45        
H_COOH        H        0.2042840898320236        0.33781147464723965        0.6343832021466905        0.45        
H_COOH        H        0.228082272171484        0.4935229244196116        0.6343832021466905        0.45        
H_COOH        H        0.4625021864267033        -0.011777297195677213        0.6343832021466905        0.45        
H_COOH        H        0.5467320705920363        0.19379697127240547        0.6343832021466905        0.45        
H_COOH        H        0.53865674724114        0.32313181504288524        0.6343832021466905        0.45        
H_COOH        H        0.5475141297679698        0.5325149023353979        0.6343832021466905        0.45        
H_COOH        H        0.795336723615286        0.0032375149997997308        0.6343832021466905        0.45        
H_COOH        H        0.7029067931226985        0.19580244168651592        0.6343832021466905        0.45        
H_COOH        H        0.7223662475553677        0.3119149710057607        0.6343832021466905        0.45        
H_COOH        H        0.7031364181275411        0.5278089516518658        0.6343832021466905        0.45        
H_COOH        H        -0.01674483616432116        0.6393138399958076        0.6343832021466905        0.45        
H_COOH        H        0.20906634966500875        0.6600094478160182        0.6343832021466905        0.45        
H_COOH        H        0.4533661236552923        0.6748037215853763        0.6343832021466905        0.45        
H_COOH        H        0.759902455736975        0.637265059800357        0.6343832021466905        0.45        
H_COOH        H        0.04545323095885547        0.855457730514506        0.6343832021466905        0.45        
H_COOH        H        0.20941837420308174        0.8445998371210797        0.6343832021466905        0.45        
H_COOH        H        0.5432797018555865        0.8497390084812043        0.6343832021466905        0.45        
H_COOH        H        0.7025287338941892        0.8653960374306006        0.6343832021466905        0.45        
