data_graphite_ortho

_audit_creation_method RASPA-1.0
_audit_creation_date 2012-2-3
_audit_author_name 'David Dubbeldam'

_cell_length_a    39.36    
_cell_length_b    38.34    
_cell_length_c    25.2    
_cell_angle_alpha 90
_cell_angle_beta  90
_cell_angle_gamma 90
_cell_volume      38028.37      

_symmetry_cell_setting          triclinic
_symmetry_space_group_name_Hall 'P 1'
_symmetry_space_group_name_H-M  'P 1'
_symmetry_Int_Tables_number     1

_symmetry_equiv_pos_as_xyz 'x,y,z'

loop_
_atom_site_label
_atom_site_type_symbol
_atom_site_fract_x
_atom_site_fract_y
_atom_site_fract_z
_atom_site_charge
C_FG        C        0.0        0.018519        0.07020630952380952        0.2        
C2        C        0.03125        0.074075        0.07020630952380952        0        
C3        C        0.0        0.092592        0.07020630952380952        0        
C4        C        0.03125        0.037037        0.07020630952380952        0        
C1        C        0.0        0.12963        0.07020630952380952        0        
C2        C        0.03125        0.185185        0.07020630952380952        0        
C3        C        0.0        0.203703        0.07020630952380952        0        
C4        C        0.03125        0.148148        0.07020630952380952        0        
C1        C        0.0        0.24074099999999998        0.07020630952380952        0        
C2        C        0.03125        0.296297        0.07020630952380952        0        
C_FG        C        0.0        0.314815        0.07020630952380952        0.2        
C4        C        0.03125        0.259259        0.07020630952380952        0        
C1        C        0.0        0.351852        0.07020630952380952        0        
C2        C        0.03125        0.407408        0.07020630952380952        0        
C3        C        0.0        0.42592500000000005        0.07020630952380952        0        
C4        C        0.03125        0.37037        0.07020630952380952        0        
C1        C        0.0        0.46296300000000007        0.07020630952380952        0        
C2        C        0.03125        0.518519        0.07020630952380952        0        
C3        C        0.0        0.537037        0.07020630952380952        0        
C4        C        0.03125        0.481481        0.07020630952380952        0        
C_FG        C        0.0        0.574075        0.07020630952380952        0.2        
C2        C        0.03125        0.62963        0.07020630952380952        0        
C3        C        0.0        0.648148        0.07020630952380952        0        
C4        C        0.03125        0.592592        0.07020630952380952        0        
C1        C        0.0625        0.018519        0.07020630952380952        0        
C2        C        0.09375        0.074075        0.07020630952380952        0        
C3        C        0.0625        0.092592        0.07020630952380952        0        
C4        C        0.09375        0.037037        0.07020630952380952        0        
C1        C        0.0625        0.12963        0.07020630952380952        0        
C2        C        0.09375        0.185185        0.07020630952380952        0        
C3        C        0.0625        0.203703        0.07020630952380952        0        
C4        C        0.09375        0.148148        0.07020630952380952        0        
C1        C        0.0625        0.24074099999999998        0.07020630952380952        0        
C2        C        0.09375        0.296297        0.07020630952380952        0        
C3        C        0.0625        0.314815        0.07020630952380952        0        
C4        C        0.09375        0.259259        0.07020630952380952        0        
C1        C        0.0625        0.351852        0.07020630952380952        0        
C2        C        0.09375        0.407408        0.07020630952380952        0        
C3        C        0.0625        0.42592500000000005        0.07020630952380952        0        
C4        C        0.09375        0.37037        0.07020630952380952        0        
C1        C        0.0625        0.46296300000000007        0.07020630952380952        0        
C2        C        0.09375        0.518519        0.07020630952380952        0        
C3        C        0.0625        0.537037        0.07020630952380952        0        
C4        C        0.09375        0.481481        0.07020630952380952        0        
C1        C        0.0625        0.574075        0.07020630952380952        0        
C2        C        0.09375        0.62963        0.07020630952380952        0        
C3        C        0.0625        0.648148        0.07020630952380952        0        
C4        C        0.09375        0.592592        0.07020630952380952        0        
C1        C        0.125        0.018519        0.07020630952380952        0        
C2        C        0.15625        0.074075        0.07020630952380952        0        
C3        C        0.125        0.092592        0.07020630952380952        0        
C4        C        0.15625        0.037037        0.07020630952380952        0        
C1        C        0.125        0.12963        0.07020630952380952        0        
C2        C        0.15625        0.185185        0.07020630952380952        0        
C3        C        0.125        0.203703        0.07020630952380952        0        
C4        C        0.15625        0.148148        0.07020630952380952        0        
C1        C        0.125        0.24074099999999998        0.07020630952380952        0        
C2        C        0.15625        0.296297        0.07020630952380952        0        
C3        C        0.125        0.314815        0.07020630952380952        0        
C4        C        0.15625        0.259259        0.07020630952380952        0        
C1        C        0.125        0.351852        0.07020630952380952        0        
C2        C        0.15625        0.407408        0.07020630952380952        0        
C3        C        0.125        0.42592500000000005        0.07020630952380952        0        
C4        C        0.15625        0.37037        0.07020630952380952        0        
C1        C        0.125        0.46296300000000007        0.07020630952380952        0        
C2        C        0.15625        0.518519        0.07020630952380952        0        
C3        C        0.125        0.537037        0.07020630952380952        0        
C4        C        0.15625        0.481481        0.07020630952380952        0        
C1        C        0.125        0.574075        0.07020630952380952        0        
C2        C        0.15625        0.62963        0.07020630952380952        0        
C3        C        0.125        0.648148        0.07020630952380952        0        
C4        C        0.15625        0.592592        0.07020630952380952        0        
C1        C        0.1875        0.018519        0.07020630952380952        0        
C2        C        0.21875        0.074075        0.07020630952380952        0        
C3        C        0.1875        0.092592        0.07020630952380952        0        
C4        C        0.21875        0.037037        0.07020630952380952        0        
C1        C        0.1875        0.12963        0.07020630952380952        0        
C2        C        0.21875        0.185185        0.07020630952380952        0        
C3        C        0.1875        0.203703        0.07020630952380952        0        
C4        C        0.21875        0.148148        0.07020630952380952        0        
C1        C        0.1875        0.24074099999999998        0.07020630952380952        0        
C2        C        0.21875        0.296297        0.07020630952380952        0        
C3        C        0.1875        0.314815        0.07020630952380952        0        
C4        C        0.21875        0.259259        0.07020630952380952        0        
C1        C        0.1875        0.351852        0.07020630952380952        0        
C2        C        0.21875        0.407408        0.07020630952380952        0        
C3        C        0.1875        0.42592500000000005        0.07020630952380952        0        
C4        C        0.21875        0.37037        0.07020630952380952        0        
C1        C        0.1875        0.46296300000000007        0.07020630952380952        0        
C2        C        0.21875        0.518519        0.07020630952380952        0        
C3        C        0.1875        0.537037        0.07020630952380952        0        
C4        C        0.21875        0.481481        0.07020630952380952        0        
C1        C        0.1875        0.574075        0.07020630952380952        0        
C2        C        0.21875        0.62963        0.07020630952380952        0        
C3        C        0.1875        0.648148        0.07020630952380952        0        
C4        C        0.21875        0.592592        0.07020630952380952        0        
C_FG        C        0.25        0.018519        0.07020630952380952        0.2        
C2        C        0.28125        0.074075        0.07020630952380952        0        
C3        C        0.25        0.092592        0.07020630952380952        0        
C4        C        0.28125        0.037037        0.07020630952380952        0        
C1        C        0.25        0.12963        0.07020630952380952        0        
C2        C        0.28125        0.185185        0.07020630952380952        0        
C3        C        0.25        0.203703        0.07020630952380952        0        
C4        C        0.28125        0.148148        0.07020630952380952        0        
C1        C        0.25        0.24074099999999998        0.07020630952380952        0        
C2        C        0.28125        0.296297        0.07020630952380952        0        
C_FG        C        0.25        0.314815        0.07020630952380952        0.2        
C4        C        0.28125        0.259259        0.07020630952380952        0        
C1        C        0.25        0.351852        0.07020630952380952        0        
C2        C        0.28125        0.407408        0.07020630952380952        0        
C3        C        0.25        0.42592500000000005        0.07020630952380952        0        
C4        C        0.28125        0.37037        0.07020630952380952        0        
C1        C        0.25        0.46296300000000007        0.07020630952380952        0        
C2        C        0.28125        0.518519        0.07020630952380952        0        
C3        C        0.25        0.537037        0.07020630952380952        0        
C4        C        0.28125        0.481481        0.07020630952380952        0        
C_FG        C        0.25        0.574075        0.07020630952380952        0.2        
C2        C        0.28125        0.62963        0.07020630952380952        0        
C3        C        0.25        0.648148        0.07020630952380952        0        
C4        C        0.28125        0.592592        0.07020630952380952        0        
C1        C        0.3125        0.018519        0.07020630952380952        0        
C2        C        0.34375        0.074075        0.07020630952380952        0        
C3        C        0.3125        0.092592        0.07020630952380952        0        
C4        C        0.34375        0.037037        0.07020630952380952        0        
C1        C        0.3125        0.12963        0.07020630952380952        0        
C2        C        0.34375        0.185185        0.07020630952380952        0        
C3        C        0.3125        0.203703        0.07020630952380952        0        
C4        C        0.34375        0.148148        0.07020630952380952        0        
C1        C        0.3125        0.24074099999999998        0.07020630952380952        0        
C2        C        0.34375        0.296297        0.07020630952380952        0        
C3        C        0.3125        0.314815        0.07020630952380952        0        
C4        C        0.34375        0.259259        0.07020630952380952        0        
C1        C        0.3125        0.351852        0.07020630952380952        0        
C2        C        0.34375        0.407408        0.07020630952380952        0        
C3        C        0.3125        0.42592500000000005        0.07020630952380952        0        
C4        C        0.34375        0.37037        0.07020630952380952        0        
C1        C        0.3125        0.46296300000000007        0.07020630952380952        0        
C2        C        0.34375        0.518519        0.07020630952380952        0        
C3        C        0.3125        0.537037        0.07020630952380952        0        
C4        C        0.34375        0.481481        0.07020630952380952        0        
C1        C        0.3125        0.574075        0.07020630952380952        0        
C2        C        0.34375        0.62963        0.07020630952380952        0        
C3        C        0.3125        0.648148        0.07020630952380952        0        
C4        C        0.34375        0.592592        0.07020630952380952        0        
C1        C        0.375        0.018519        0.07020630952380952        0        
C2        C        0.40625        0.074075        0.07020630952380952        0        
C3        C        0.375        0.092592        0.07020630952380952        0        
C4        C        0.40625        0.037037        0.07020630952380952        0        
C1        C        0.375        0.12963        0.07020630952380952        0        
C2        C        0.40625        0.185185        0.07020630952380952        0        
C3        C        0.375        0.203703        0.07020630952380952        0        
C4        C        0.40625        0.148148        0.07020630952380952        0        
C1        C        0.375        0.24074099999999998        0.07020630952380952        0        
C2        C        0.40625        0.296297        0.07020630952380952        0        
C3        C        0.375        0.314815        0.07020630952380952        0        
C4        C        0.40625        0.259259        0.07020630952380952        0        
C1        C        0.375        0.351852        0.07020630952380952        0        
C2        C        0.40625        0.407408        0.07020630952380952        0        
C3        C        0.375        0.42592500000000005        0.07020630952380952        0        
C4        C        0.40625        0.37037        0.07020630952380952        0        
C1        C        0.375        0.46296300000000007        0.07020630952380952        0        
C2        C        0.40625        0.518519        0.07020630952380952        0        
C3        C        0.375        0.537037        0.07020630952380952        0        
C4        C        0.40625        0.481481        0.07020630952380952        0        
C1        C        0.375        0.574075        0.07020630952380952        0        
C2        C        0.40625        0.62963        0.07020630952380952        0        
C3        C        0.375        0.648148        0.07020630952380952        0        
C4        C        0.40625        0.592592        0.07020630952380952        0        
C1        C        0.4375        0.018519        0.07020630952380952        0        
C2        C        0.46875        0.074075        0.07020630952380952        0        
C3        C        0.4375        0.092592        0.07020630952380952        0        
C4        C        0.46875        0.037037        0.07020630952380952        0        
C1        C        0.4375        0.12963        0.07020630952380952        0        
C2        C        0.46875        0.185185        0.07020630952380952        0        
C3        C        0.4375        0.203703        0.07020630952380952        0        
C4        C        0.46875        0.148148        0.07020630952380952        0        
C1        C        0.4375        0.24074099999999998        0.07020630952380952        0        
C2        C        0.46875        0.296297        0.07020630952380952        0        
C3        C        0.4375        0.314815        0.07020630952380952        0        
C4        C        0.46875        0.259259        0.07020630952380952        0        
C1        C        0.4375        0.351852        0.07020630952380952        0        
C2        C        0.46875        0.407408        0.07020630952380952        0        
C3        C        0.4375        0.42592500000000005        0.07020630952380952        0        
C4        C        0.46875        0.37037        0.07020630952380952        0        
C1        C        0.4375        0.46296300000000007        0.07020630952380952        0        
C2        C        0.46875        0.518519        0.07020630952380952        0        
C3        C        0.4375        0.537037        0.07020630952380952        0        
C4        C        0.46875        0.481481        0.07020630952380952        0        
C1        C        0.4375        0.574075        0.07020630952380952        0        
C2        C        0.46875        0.62963        0.07020630952380952        0        
C3        C        0.4375        0.648148        0.07020630952380952        0        
C4        C        0.46875        0.592592        0.07020630952380952        0        
C_FG        C        0.5        0.018519        0.07020630952380952        0.2        
C2        C        0.53125        0.074075        0.07020630952380952        0        
C3        C        0.5        0.092592        0.07020630952380952        0        
C4        C        0.53125        0.037037        0.07020630952380952        0        
C1        C        0.5        0.12963        0.07020630952380952        0        
C2        C        0.53125        0.185185        0.07020630952380952        0        
C3        C        0.5        0.203703        0.07020630952380952        0        
C4        C        0.53125        0.148148        0.07020630952380952        0        
C1        C        0.5        0.24074099999999998        0.07020630952380952        0        
C2        C        0.53125        0.296297        0.07020630952380952        0        
C_FG        C        0.5        0.314815        0.07020630952380952        0.2        
C4        C        0.53125        0.259259        0.07020630952380952        0        
C1        C        0.5        0.351852        0.07020630952380952        0        
C2        C        0.53125        0.407408        0.07020630952380952        0        
C3        C        0.5        0.42592500000000005        0.07020630952380952        0        
C4        C        0.53125        0.37037        0.07020630952380952        0        
C1        C        0.5        0.46296300000000007        0.07020630952380952        0        
C2        C        0.53125        0.518519        0.07020630952380952        0        
C3        C        0.5        0.537037        0.07020630952380952        0        
C4        C        0.53125        0.481481        0.07020630952380952        0        
C_FG        C        0.5        0.574075        0.07020630952380952        0.2        
C2        C        0.53125        0.62963        0.07020630952380952        0        
C3        C        0.5        0.648148        0.07020630952380952        0        
C4        C        0.53125        0.592592        0.07020630952380952        0        
C1        C        0.5625        0.018519        0.07020630952380952        0        
C2        C        0.59375        0.074075        0.07020630952380952        0        
C3        C        0.5625        0.092592        0.07020630952380952        0        
C4        C        0.59375        0.037037        0.07020630952380952        0        
C1        C        0.5625        0.12963        0.07020630952380952        0        
C2        C        0.59375        0.185185        0.07020630952380952        0        
C3        C        0.5625        0.203703        0.07020630952380952        0        
C4        C        0.59375        0.148148        0.07020630952380952        0        
C1        C        0.5625        0.24074099999999998        0.07020630952380952        0        
C2        C        0.59375        0.296297        0.07020630952380952        0        
C3        C        0.5625        0.314815        0.07020630952380952        0        
C4        C        0.59375        0.259259        0.07020630952380952        0        
C1        C        0.5625        0.351852        0.07020630952380952        0        
C2        C        0.59375        0.407408        0.07020630952380952        0        
C3        C        0.5625        0.42592500000000005        0.07020630952380952        0        
C4        C        0.59375        0.37037        0.07020630952380952        0        
C1        C        0.5625        0.46296300000000007        0.07020630952380952        0        
C2        C        0.59375        0.518519        0.07020630952380952        0        
C3        C        0.5625        0.537037        0.07020630952380952        0        
C4        C        0.59375        0.481481        0.07020630952380952        0        
C1        C        0.5625        0.574075        0.07020630952380952        0        
C2        C        0.59375        0.62963        0.07020630952380952        0        
C3        C        0.5625        0.648148        0.07020630952380952        0        
C4        C        0.59375        0.592592        0.07020630952380952        0        
C1        C        0.625        0.018519        0.07020630952380952        0        
C2        C        0.65625        0.074075        0.07020630952380952        0        
C3        C        0.625        0.092592        0.07020630952380952        0        
C4        C        0.65625        0.037037        0.07020630952380952        0        
C1        C        0.625        0.12963        0.07020630952380952        0        
C2        C        0.65625        0.185185        0.07020630952380952        0        
C3        C        0.625        0.203703        0.07020630952380952        0        
C4        C        0.65625        0.148148        0.07020630952380952        0        
C1        C        0.625        0.24074099999999998        0.07020630952380952        0        
C2        C        0.65625        0.296297        0.07020630952380952        0        
C3        C        0.625        0.314815        0.07020630952380952        0        
C4        C        0.65625        0.259259        0.07020630952380952        0        
C1        C        0.625        0.351852        0.07020630952380952        0        
C2        C        0.65625        0.407408        0.07020630952380952        0        
C3        C        0.625        0.42592500000000005        0.07020630952380952        0        
C4        C        0.65625        0.37037        0.07020630952380952        0        
C1        C        0.625        0.46296300000000007        0.07020630952380952        0        
C2        C        0.65625        0.518519        0.07020630952380952        0        
C3        C        0.625        0.537037        0.07020630952380952        0        
C4        C        0.65625        0.481481        0.07020630952380952        0        
C1        C        0.625        0.574075        0.07020630952380952        0        
C2        C        0.65625        0.62963        0.07020630952380952        0        
C3        C        0.625        0.648148        0.07020630952380952        0        
C4        C        0.65625        0.592592        0.07020630952380952        0        
C1        C        0.6875        0.018519        0.07020630952380952        0        
C2        C        0.71875        0.074075        0.07020630952380952        0        
C3        C        0.6875        0.092592        0.07020630952380952        0        
C4        C        0.71875        0.037037        0.07020630952380952        0        
C1        C        0.6875        0.12963        0.07020630952380952        0        
C2        C        0.71875        0.185185        0.07020630952380952        0        
C3        C        0.6875        0.203703        0.07020630952380952        0        
C4        C        0.71875        0.148148        0.07020630952380952        0        
C1        C        0.6875        0.24074099999999998        0.07020630952380952        0        
C2        C        0.71875        0.296297        0.07020630952380952        0        
C3        C        0.6875        0.314815        0.07020630952380952        0        
C4        C        0.71875        0.259259        0.07020630952380952        0        
C1        C        0.6875        0.351852        0.07020630952380952        0        
C2        C        0.71875        0.407408        0.07020630952380952        0        
C3        C        0.6875        0.42592500000000005        0.07020630952380952        0        
C4        C        0.71875        0.37037        0.07020630952380952        0        
C1        C        0.6875        0.46296300000000007        0.07020630952380952        0        
C2        C        0.71875        0.518519        0.07020630952380952        0        
C3        C        0.6875        0.537037        0.07020630952380952        0        
C4        C        0.71875        0.481481        0.07020630952380952        0        
C1        C        0.6875        0.574075        0.07020630952380952        0        
C2        C        0.71875        0.62963        0.07020630952380952        0        
C3        C        0.6875        0.648148        0.07020630952380952        0        
C4        C        0.71875        0.592592        0.07020630952380952        0        
C_FG        C        0.75        0.018519        0.07020630952380952        0.2        
C2        C        0.78125        0.074075        0.07020630952380952        0        
C3        C        0.75        0.092592        0.07020630952380952        0        
C4        C        0.78125        0.037037        0.07020630952380952        0        
C1        C        0.75        0.12963        0.07020630952380952        0        
C2        C        0.78125        0.185185        0.07020630952380952        0        
C3        C        0.75        0.203703        0.07020630952380952        0        
C4        C        0.78125        0.148148        0.07020630952380952        0        
C1        C        0.75        0.24074099999999998        0.07020630952380952        0        
C2        C        0.78125        0.296297        0.07020630952380952        0        
C_FG        C        0.75        0.314815        0.07020630952380952        0.2        
C4        C        0.78125        0.259259        0.07020630952380952        0        
C1        C        0.75        0.351852        0.07020630952380952        0        
C2        C        0.78125        0.407408        0.07020630952380952        0        
C3        C        0.75        0.42592500000000005        0.07020630952380952        0        
C4        C        0.78125        0.37037        0.07020630952380952        0        
C1        C        0.75        0.46296300000000007        0.07020630952380952        0        
C2        C        0.78125        0.518519        0.07020630952380952        0        
C3        C        0.75        0.537037        0.07020630952380952        0        
C4        C        0.78125        0.481481        0.07020630952380952        0        
C_FG        C        0.75        0.574075        0.07020630952380952        0.2        
C2        C        0.78125        0.62963        0.07020630952380952        0        
C3        C        0.75        0.648148        0.07020630952380952        0        
C4        C        0.78125        0.592592        0.07020630952380952        0        
C1        C        0.8125        0.018519        0.07020630952380952        0        
C2        C        0.84375        0.074075        0.07020630952380952        0        
C3        C        0.8125        0.092592        0.07020630952380952        0        
C4        C        0.84375        0.037037        0.07020630952380952        0        
C1        C        0.8125        0.12963        0.07020630952380952        0        
C2        C        0.84375        0.185185        0.07020630952380952        0        
C3        C        0.8125        0.203703        0.07020630952380952        0        
C4        C        0.84375        0.148148        0.07020630952380952        0        
C1        C        0.8125        0.24074099999999998        0.07020630952380952        0        
C2        C        0.84375        0.296297        0.07020630952380952        0        
C3        C        0.8125        0.314815        0.07020630952380952        0        
C4        C        0.84375        0.259259        0.07020630952380952        0        
C1        C        0.8125        0.351852        0.07020630952380952        0        
C2        C        0.84375        0.407408        0.07020630952380952        0        
C3        C        0.8125        0.42592500000000005        0.07020630952380952        0        
C4        C        0.84375        0.37037        0.07020630952380952        0        
C1        C        0.8125        0.46296300000000007        0.07020630952380952        0        
C2        C        0.84375        0.518519        0.07020630952380952        0        
C3        C        0.8125        0.537037        0.07020630952380952        0        
C4        C        0.84375        0.481481        0.07020630952380952        0        
C1        C        0.8125        0.574075        0.07020630952380952        0        
C2        C        0.84375        0.62963        0.07020630952380952        0        
C3        C        0.8125        0.648148        0.07020630952380952        0        
C4        C        0.84375        0.592592        0.07020630952380952        0        
C1        C        0.875        0.018519        0.07020630952380952        0        
C2        C        0.9062500000000001        0.074075        0.07020630952380952        0        
C3        C        0.875        0.092592        0.07020630952380952        0        
C4        C        0.9062500000000001        0.037037        0.07020630952380952        0        
C1        C        0.875        0.12963        0.07020630952380952        0        
C2        C        0.9062500000000001        0.185185        0.07020630952380952        0        
C3        C        0.875        0.203703        0.07020630952380952        0        
C4        C        0.9062500000000001        0.148148        0.07020630952380952        0        
C1        C        0.875        0.24074099999999998        0.07020630952380952        0        
C2        C        0.9062500000000001        0.296297        0.07020630952380952        0        
C3        C        0.875        0.314815        0.07020630952380952        0        
C4        C        0.9062500000000001        0.259259        0.07020630952380952        0        
C1        C        0.875        0.351852        0.07020630952380952        0        
C2        C        0.9062500000000001        0.407408        0.07020630952380952        0        
C3        C        0.875        0.42592500000000005        0.07020630952380952        0        
C4        C        0.9062500000000001        0.37037        0.07020630952380952        0        
C1        C        0.875        0.46296300000000007        0.07020630952380952        0        
C2        C        0.9062500000000001        0.518519        0.07020630952380952        0        
C3        C        0.875        0.537037        0.07020630952380952        0        
C4        C        0.9062500000000001        0.481481        0.07020630952380952        0        
C1        C        0.875        0.574075        0.07020630952380952        0        
C2        C        0.9062500000000001        0.62963        0.07020630952380952        0        
C3        C        0.875        0.648148        0.07020630952380952        0        
C4        C        0.9062500000000001        0.592592        0.07020630952380952        0        
C1        C        0.9375        0.018519        0.07020630952380952        0        
C2        C        0.9687500000000001        0.074075        0.07020630952380952        0        
C3        C        0.9375        0.092592        0.07020630952380952        0        
C4        C        0.9687500000000001        0.037037        0.07020630952380952        0        
C1        C        0.9375        0.12963        0.07020630952380952        0        
C2        C        0.9687500000000001        0.185185        0.07020630952380952        0        
C3        C        0.9375        0.203703        0.07020630952380952        0        
C4        C        0.9687500000000001        0.148148        0.07020630952380952        0        
C1        C        0.9375        0.24074099999999998        0.07020630952380952        0        
C2        C        0.9687500000000001        0.296297        0.07020630952380952        0        
C3        C        0.9375        0.314815        0.07020630952380952        0        
C4        C        0.9687500000000001        0.259259        0.07020630952380952        0        
C1        C        0.9375        0.351852        0.07020630952380952        0        
C2        C        0.9687500000000001        0.407408        0.07020630952380952        0        
C3        C        0.9375        0.42592500000000005        0.07020630952380952        0        
C4        C        0.9687500000000001        0.37037        0.07020630952380952        0        
C1        C        0.9375        0.46296300000000007        0.07020630952380952        0        
C2        C        0.9687500000000001        0.518519        0.07020630952380952        0        
C3        C        0.9375        0.537037        0.07020630952380952        0        
C4        C        0.9687500000000001        0.481481        0.07020630952380952        0        
C1        C        0.9375        0.574075        0.07020630952380952        0        
C2        C        0.9687500000000001        0.62963        0.07020630952380952        0        
C3        C        0.9375        0.648148        0.07020630952380952        0        
C4        C        0.9687500000000001        0.592592        0.07020630952380952        0        
C1        C        0.0        0.685186        0.07020630952380952        0        
C1        C        0.0625        0.685186        0.07020630952380952        0        
C1        C        0.125        0.685186        0.07020630952380952        0        
C1        C        0.1875        0.685186        0.07020630952380952        0        
C1        C        0.25        0.685186        0.07020630952380952        0        
C1        C        0.3125        0.685186        0.07020630952380952        0        
C1        C        0.375        0.685186        0.07020630952380952        0        
C1        C        0.4375        0.685186        0.07020630952380952        0        
C1        C        0.5        0.685186        0.07020630952380952        0        
C1        C        0.5625        0.685186        0.07020630952380952        0        
C1        C        0.625        0.685186        0.07020630952380952        0        
C1        C        0.6875        0.685186        0.07020630952380952        0        
C1        C        0.75        0.685186        0.07020630952380952        0        
C1        C        0.8125        0.685186        0.07020630952380952        0        
C1        C        0.875        0.685186        0.07020630952380952        0        
C1        C        0.9375        0.685186        0.07020630952380952        0        
C2        C        0.03125        0.740741        0.07020630952380952        0        
C2        C        0.09375        0.740741        0.07020630952380952        0        
C2        C        0.15625        0.740741        0.07020630952380952        0        
C2        C        0.21875        0.740741        0.07020630952380952        0        
C2        C        0.28125        0.740741        0.07020630952380952        0        
C2        C        0.34375        0.740741        0.07020630952380952        0        
C2        C        0.40625        0.740741        0.07020630952380952        0        
C2        C        0.46875        0.740741        0.07020630952380952        0        
C2        C        0.53125        0.740741        0.07020630952380952        0        
C2        C        0.59375        0.740741        0.07020630952380952        0        
C2        C        0.65625        0.740741        0.07020630952380952        0        
C2        C        0.71875        0.740741        0.07020630952380952        0        
C2        C        0.78125        0.740741        0.07020630952380952        0        
C2        C        0.84375        0.740741        0.07020630952380952        0        
C2        C        0.9062500000000001        0.740741        0.07020630952380952        0        
C2        C        0.9687500000000001        0.740741        0.07020630952380952        0        
C3        C        0.0        0.759259        0.07020630952380952        0        
C3        C        0.0625        0.759259        0.07020630952380952        0        
C3        C        0.125        0.759259        0.07020630952380952        0        
C3        C        0.1875        0.759259        0.07020630952380952        0        
C3        C        0.25        0.759259        0.07020630952380952        0        
C3        C        0.3125        0.759259        0.07020630952380952        0        
C3        C        0.375        0.759259        0.07020630952380952        0        
C3        C        0.4375        0.759259        0.07020630952380952        0        
C3        C        0.5        0.759259        0.07020630952380952        0        
C3        C        0.5625        0.759259        0.07020630952380952        0        
C3        C        0.625        0.759259        0.07020630952380952        0        
C3        C        0.6875        0.759259        0.07020630952380952        0        
C3        C        0.75        0.759259        0.07020630952380952        0        
C3        C        0.8125        0.759259        0.07020630952380952        0        
C3        C        0.875        0.759259        0.07020630952380952        0        
C3        C        0.9375        0.759259        0.07020630952380952        0        
C4        C        0.03125        0.703703        0.07020630952380952        0        
C4        C        0.09375        0.703703        0.07020630952380952        0        
C4        C        0.15625        0.703703        0.07020630952380952        0        
C4        C        0.21875        0.703703        0.07020630952380952        0        
C4        C        0.28125        0.703703        0.07020630952380952        0        
C4        C        0.34375        0.703703        0.07020630952380952        0        
C4        C        0.40625        0.703703        0.07020630952380952        0        
C4        C        0.46875        0.703703        0.07020630952380952        0        
C4        C        0.53125        0.703703        0.07020630952380952        0        
C4        C        0.59375        0.703703        0.07020630952380952        0        
C4        C        0.65625        0.703703        0.07020630952380952        0        
C4        C        0.71875        0.703703        0.07020630952380952        0        
C4        C        0.78125        0.703703        0.07020630952380952        0        
C4        C        0.84375        0.703703        0.07020630952380952        0        
C4        C        0.9062500000000001        0.703703        0.07020630952380952        0        
C4        C        0.9687500000000001        0.703703        0.07020630952380952        0        
C1        C        0.0        0.796297        0.07020630952380952        0        
C1        C        0.0625        0.796297        0.07020630952380952        0        
C1        C        0.125        0.796297        0.07020630952380952        0        
C1        C        0.1875        0.796297        0.07020630952380952        0        
C1        C        0.25        0.796297        0.07020630952380952        0        
C1        C        0.3125        0.796297        0.07020630952380952        0        
C1        C        0.375        0.796297        0.07020630952380952        0        
C1        C        0.4375        0.796297        0.07020630952380952        0        
C1        C        0.5        0.796297        0.07020630952380952        0        
C1        C        0.5625        0.796297        0.07020630952380952        0        
C1        C        0.625        0.796297        0.07020630952380952        0        
C1        C        0.6875        0.796297        0.07020630952380952        0        
C1        C        0.75        0.796297        0.07020630952380952        0        
C1        C        0.8125        0.796297        0.07020630952380952        0        
C1        C        0.875        0.796297        0.07020630952380952        0        
C1        C        0.9375        0.796297        0.07020630952380952        0        
C2        C        0.03125        0.851852        0.07020630952380952        0        
C2        C        0.09375        0.851852        0.07020630952380952        0        
C2        C        0.15625        0.851852        0.07020630952380952        0        
C2        C        0.21875        0.851852        0.07020630952380952        0        
C2        C        0.28125        0.851852        0.07020630952380952        0        
C2        C        0.34375        0.851852        0.07020630952380952        0        
C2        C        0.40625        0.851852        0.07020630952380952        0        
C2        C        0.46875        0.851852        0.07020630952380952        0        
C2        C        0.53125        0.851852        0.07020630952380952        0        
C2        C        0.59375        0.851852        0.07020630952380952        0        
C2        C        0.65625        0.851852        0.07020630952380952        0        
C2        C        0.71875        0.851852        0.07020630952380952        0        
C2        C        0.78125        0.851852        0.07020630952380952        0        
C2        C        0.84375        0.851852        0.07020630952380952        0        
C2        C        0.9062500000000001        0.851852        0.07020630952380952        0        
C2        C        0.9687500000000001        0.851852        0.07020630952380952        0        
C_FG        C        0.0        0.87037        0.07020630952380952        0.2        
C3        C        0.0625        0.87037        0.07020630952380952        0        
C3        C        0.125        0.87037        0.07020630952380952        0        
C3        C        0.1875        0.87037        0.07020630952380952        0        
C_FG        C        0.25        0.87037        0.07020630952380952        0.2        
C3        C        0.3125        0.87037        0.07020630952380952        0        
C3        C        0.375        0.87037        0.07020630952380952        0        
C3        C        0.4375        0.87037        0.07020630952380952        0        
C_FG        C        0.5        0.87037        0.07020630952380952        0.2        
C3        C        0.5625        0.87037        0.07020630952380952        0        
C3        C        0.625        0.87037        0.07020630952380952        0        
C3        C        0.6875        0.87037        0.07020630952380952        0        
C_FG        C        0.75        0.87037        0.07020630952380952        0.2        
C3        C        0.8125        0.87037        0.07020630952380952        0        
C3        C        0.875        0.87037        0.07020630952380952        0        
C3        C        0.9375        0.87037        0.07020630952380952        0        
C4        C        0.03125        0.814814        0.07020630952380952        0        
C4        C        0.09375        0.814814        0.07020630952380952        0        
C4        C        0.15625        0.814814        0.07020630952380952        0        
C4        C        0.21875        0.814814        0.07020630952380952        0        
C4        C        0.28125        0.814814        0.07020630952380952        0        
C4        C        0.34375        0.814814        0.07020630952380952        0        
C4        C        0.40625        0.814814        0.07020630952380952        0        
C4        C        0.46875        0.814814        0.07020630952380952        0        
C4        C        0.53125        0.814814        0.07020630952380952        0        
C4        C        0.59375        0.814814        0.07020630952380952        0        
C4        C        0.65625        0.814814        0.07020630952380952        0        
C4        C        0.71875        0.814814        0.07020630952380952        0        
C4        C        0.78125        0.814814        0.07020630952380952        0        
C4        C        0.84375        0.814814        0.07020630952380952        0        
C4        C        0.9062500000000001        0.814814        0.07020630952380952        0        
C4        C        0.9687500000000001        0.814814        0.07020630952380952        0        
C1        C        0.0        0.907408        0.07020630952380952        0        
C1        C        0.0625        0.907408        0.07020630952380952        0        
C1        C        0.125        0.907408        0.07020630952380952        0        
C1        C        0.1875        0.907408        0.07020630952380952        0        
C1        C        0.25        0.907408        0.07020630952380952        0        
C1        C        0.3125        0.907408        0.07020630952380952        0        
C1        C        0.375        0.907408        0.07020630952380952        0        
C1        C        0.4375        0.907408        0.07020630952380952        0        
C1        C        0.5        0.907408        0.07020630952380952        0        
C1        C        0.5625        0.907408        0.07020630952380952        0        
C1        C        0.625        0.907408        0.07020630952380952        0        
C1        C        0.6875        0.907408        0.07020630952380952        0        
C1        C        0.75        0.907408        0.07020630952380952        0        
C1        C        0.8125        0.907408        0.07020630952380952        0        
C1        C        0.875        0.907408        0.07020630952380952        0        
C1        C        0.9375        0.907408        0.07020630952380952        0        
C2        C        0.03125        0.962963        0.07020630952380952        0        
C2        C        0.09375        0.962963        0.07020630952380952        0        
C2        C        0.15625        0.962963        0.07020630952380952        0        
C2        C        0.21875        0.962963        0.07020630952380952        0        
C2        C        0.28125        0.962963        0.07020630952380952        0        
C2        C        0.34375        0.962963        0.07020630952380952        0        
C2        C        0.40625        0.962963        0.07020630952380952        0        
C2        C        0.46875        0.962963        0.07020630952380952        0        
C2        C        0.53125        0.962963        0.07020630952380952        0        
C2        C        0.59375        0.962963        0.07020630952380952        0        
C2        C        0.65625        0.962963        0.07020630952380952        0        
C2        C        0.71875        0.962963        0.07020630952380952        0        
C2        C        0.78125        0.962963        0.07020630952380952        0        
C2        C        0.84375        0.962963        0.07020630952380952        0        
C2        C        0.9062500000000001        0.962963        0.07020630952380952        0        
C2        C        0.9687500000000001        0.962963        0.07020630952380952        0        
C3        C        0.0        0.9814809999999999        0.07020630952380952        0        
C3        C        0.0625        0.9814809999999999        0.07020630952380952        0        
C3        C        0.125        0.9814809999999999        0.07020630952380952        0        
C3        C        0.1875        0.9814809999999999        0.07020630952380952        0        
C3        C        0.25        0.9814809999999999        0.07020630952380952        0        
C3        C        0.3125        0.9814809999999999        0.07020630952380952        0        
C3        C        0.375        0.9814809999999999        0.07020630952380952        0        
C3        C        0.4375        0.9814809999999999        0.07020630952380952        0        
C3        C        0.5        0.9814809999999999        0.07020630952380952        0        
C3        C        0.5625        0.9814809999999999        0.07020630952380952        0        
C3        C        0.625        0.9814809999999999        0.07020630952380952        0        
C3        C        0.6875        0.9814809999999999        0.07020630952380952        0        
C3        C        0.75        0.9814809999999999        0.07020630952380952        0        
C3        C        0.8125        0.9814809999999999        0.07020630952380952        0        
C3        C        0.875        0.9814809999999999        0.07020630952380952        0        
C3        C        0.9375        0.9814809999999999        0.07020630952380952        0        
C4        C        0.03125        0.925925        0.07020630952380952        0        
C4        C        0.09375        0.925925        0.07020630952380952        0        
C4        C        0.15625        0.925925        0.07020630952380952        0        
C4        C        0.21875        0.925925        0.07020630952380952        0        
C4        C        0.28125        0.925925        0.07020630952380952        0        
C4        C        0.34375        0.925925        0.07020630952380952        0        
C4        C        0.40625        0.925925        0.07020630952380952        0        
C4        C        0.46875        0.925925        0.07020630952380952        0        
C4        C        0.53125        0.925925        0.07020630952380952        0        
C4        C        0.59375        0.925925        0.07020630952380952        0        
C4        C        0.65625        0.925925        0.07020630952380952        0        
C4        C        0.71875        0.925925        0.07020630952380952        0        
C4        C        0.78125        0.925925        0.07020630952380952        0        
C4        C        0.84375        0.925925        0.07020630952380952        0        
C4        C        0.9062500000000001        0.925925        0.07020630952380952        0        
C4        C        0.9687500000000001        0.925925        0.07020630952380952        0        
C1        C        0.0        0.018519        0.2031433095238095        0        
C2        C        0.03125        0.074075        0.2031433095238095        0        
C3        C        0.0        0.092592        0.2031433095238095        0        
C4        C        0.03125        0.037037        0.2031433095238095        0        
C1        C        0.0        0.12963        0.2031433095238095        0        
C2        C        0.03125        0.185185        0.2031433095238095        0        
C3        C        0.0        0.203703        0.2031433095238095        0        
C4        C        0.03125        0.148148        0.2031433095238095        0        
C1        C        0.0        0.24074099999999998        0.2031433095238095        0        
C2        C        0.03125        0.296297        0.2031433095238095        0        
C3        C        0.0        0.314815        0.2031433095238095        0        
C4        C        0.03125        0.259259        0.2031433095238095        0        
C1        C        0.0        0.351852        0.2031433095238095        0        
C2        C        0.03125        0.407408        0.2031433095238095        0        
C3        C        0.0        0.42592500000000005        0.2031433095238095        0        
C4        C        0.03125        0.37037        0.2031433095238095        0        
C1        C        0.0        0.46296300000000007        0.2031433095238095        0        
C2        C        0.03125        0.518519        0.2031433095238095        0        
C3        C        0.0        0.537037        0.2031433095238095        0        
C4        C        0.03125        0.481481        0.2031433095238095        0        
C1        C        0.0        0.574075        0.2031433095238095        0        
C2        C        0.03125        0.62963        0.2031433095238095        0        
C3        C        0.0        0.648148        0.2031433095238095        0        
C4        C        0.03125        0.592592        0.2031433095238095        0        
C1        C        0.0625        0.018519        0.2031433095238095        0        
C2        C        0.09375        0.074075        0.2031433095238095        0        
C3        C        0.0625        0.092592        0.2031433095238095        0        
C4        C        0.09375        0.037037        0.2031433095238095        0        
C1        C        0.0625        0.12963        0.2031433095238095        0        
C2        C        0.09375        0.185185        0.2031433095238095        0        
C3        C        0.0625        0.203703        0.2031433095238095        0        
C4        C        0.09375        0.148148        0.2031433095238095        0        
C1        C        0.0625        0.24074099999999998        0.2031433095238095        0        
C2        C        0.09375        0.296297        0.2031433095238095        0        
C3        C        0.0625        0.314815        0.2031433095238095        0        
C4        C        0.09375        0.259259        0.2031433095238095        0        
C1        C        0.0625        0.351852        0.2031433095238095        0        
C2        C        0.09375        0.407408        0.2031433095238095        0        
C3        C        0.0625        0.42592500000000005        0.2031433095238095        0        
C4        C        0.09375        0.37037        0.2031433095238095        0        
C1        C        0.0625        0.46296300000000007        0.2031433095238095        0        
C2        C        0.09375        0.518519        0.2031433095238095        0        
C3        C        0.0625        0.537037        0.2031433095238095        0        
C4        C        0.09375        0.481481        0.2031433095238095        0        
C1        C        0.0625        0.574075        0.2031433095238095        0        
C2        C        0.09375        0.62963        0.2031433095238095        0        
C3        C        0.0625        0.648148        0.2031433095238095        0        
C4        C        0.09375        0.592592        0.2031433095238095        0        
C1        C        0.125        0.018519        0.2031433095238095        0        
C2        C        0.15625        0.074075        0.2031433095238095        0        
C3        C        0.125        0.092592        0.2031433095238095        0        
C4        C        0.15625        0.037037        0.2031433095238095        0        
C1        C        0.125        0.12963        0.2031433095238095        0        
C2        C        0.15625        0.185185        0.2031433095238095        0        
C3        C        0.125        0.203703        0.2031433095238095        0        
C4        C        0.15625        0.148148        0.2031433095238095        0        
C1        C        0.125        0.24074099999999998        0.2031433095238095        0        
C2        C        0.15625        0.296297        0.2031433095238095        0        
C3        C        0.125        0.314815        0.2031433095238095        0        
C4        C        0.15625        0.259259        0.2031433095238095        0        
C1        C        0.125        0.351852        0.2031433095238095        0        
C2        C        0.15625        0.407408        0.2031433095238095        0        
C3        C        0.125        0.42592500000000005        0.2031433095238095        0        
C4        C        0.15625        0.37037        0.2031433095238095        0        
C1        C        0.125        0.46296300000000007        0.2031433095238095        0        
C2        C        0.15625        0.518519        0.2031433095238095        0        
C3        C        0.125        0.537037        0.2031433095238095        0        
C4        C        0.15625        0.481481        0.2031433095238095        0        
C1        C        0.125        0.574075        0.2031433095238095        0        
C2        C        0.15625        0.62963        0.2031433095238095        0        
C3        C        0.125        0.648148        0.2031433095238095        0        
C4        C        0.15625        0.592592        0.2031433095238095        0        
C1        C        0.1875        0.018519        0.2031433095238095        0        
C2        C        0.21875        0.074075        0.2031433095238095        0        
C3        C        0.1875        0.092592        0.2031433095238095        0        
C4        C        0.21875        0.037037        0.2031433095238095        0        
C1        C        0.1875        0.12963        0.2031433095238095        0        
C2        C        0.21875        0.185185        0.2031433095238095        0        
C3        C        0.1875        0.203703        0.2031433095238095        0        
C4        C        0.21875        0.148148        0.2031433095238095        0        
C1        C        0.1875        0.24074099999999998        0.2031433095238095        0        
C2        C        0.21875        0.296297        0.2031433095238095        0        
C3        C        0.1875        0.314815        0.2031433095238095        0        
C4        C        0.21875        0.259259        0.2031433095238095        0        
C1        C        0.1875        0.351852        0.2031433095238095        0        
C2        C        0.21875        0.407408        0.2031433095238095        0        
C3        C        0.1875        0.42592500000000005        0.2031433095238095        0        
C4        C        0.21875        0.37037        0.2031433095238095        0        
C1        C        0.1875        0.46296300000000007        0.2031433095238095        0        
C2        C        0.21875        0.518519        0.2031433095238095        0        
C3        C        0.1875        0.537037        0.2031433095238095        0        
C4        C        0.21875        0.481481        0.2031433095238095        0        
C1        C        0.1875        0.574075        0.2031433095238095        0        
C2        C        0.21875        0.62963        0.2031433095238095        0        
C3        C        0.1875        0.648148        0.2031433095238095        0        
C4        C        0.21875        0.592592        0.2031433095238095        0        
C1        C        0.25        0.018519        0.2031433095238095        0        
C2        C        0.28125        0.074075        0.2031433095238095        0        
C3        C        0.25        0.092592        0.2031433095238095        0        
C4        C        0.28125        0.037037        0.2031433095238095        0        
C1        C        0.25        0.12963        0.2031433095238095        0        
C2        C        0.28125        0.185185        0.2031433095238095        0        
C3        C        0.25        0.203703        0.2031433095238095        0        
C4        C        0.28125        0.148148        0.2031433095238095        0        
C1        C        0.25        0.24074099999999998        0.2031433095238095        0        
C2        C        0.28125        0.296297        0.2031433095238095        0        
C3        C        0.25        0.314815        0.2031433095238095        0        
C4        C        0.28125        0.259259        0.2031433095238095        0        
C1        C        0.25        0.351852        0.2031433095238095        0        
C2        C        0.28125        0.407408        0.2031433095238095        0        
C3        C        0.25        0.42592500000000005        0.2031433095238095        0        
C4        C        0.28125        0.37037        0.2031433095238095        0        
C1        C        0.25        0.46296300000000007        0.2031433095238095        0        
C2        C        0.28125        0.518519        0.2031433095238095        0        
C3        C        0.25        0.537037        0.2031433095238095        0        
C4        C        0.28125        0.481481        0.2031433095238095        0        
C1        C        0.25        0.574075        0.2031433095238095        0        
C2        C        0.28125        0.62963        0.2031433095238095        0        
C3        C        0.25        0.648148        0.2031433095238095        0        
C4        C        0.28125        0.592592        0.2031433095238095        0        
C1        C        0.3125        0.018519        0.2031433095238095        0        
C2        C        0.34375        0.074075        0.2031433095238095        0        
C3        C        0.3125        0.092592        0.2031433095238095        0        
C4        C        0.34375        0.037037        0.2031433095238095        0        
C1        C        0.3125        0.12963        0.2031433095238095        0        
C2        C        0.34375        0.185185        0.2031433095238095        0        
C3        C        0.3125        0.203703        0.2031433095238095        0        
C4        C        0.34375        0.148148        0.2031433095238095        0        
C1        C        0.3125        0.24074099999999998        0.2031433095238095        0        
C2        C        0.34375        0.296297        0.2031433095238095        0        
C3        C        0.3125        0.314815        0.2031433095238095        0        
C4        C        0.34375        0.259259        0.2031433095238095        0        
C1        C        0.3125        0.351852        0.2031433095238095        0        
C2        C        0.34375        0.407408        0.2031433095238095        0        
C3        C        0.3125        0.42592500000000005        0.2031433095238095        0        
C4        C        0.34375        0.37037        0.2031433095238095        0        
C1        C        0.3125        0.46296300000000007        0.2031433095238095        0        
C2        C        0.34375        0.518519        0.2031433095238095        0        
C3        C        0.3125        0.537037        0.2031433095238095        0        
C4        C        0.34375        0.481481        0.2031433095238095        0        
C1        C        0.3125        0.574075        0.2031433095238095        0        
C2        C        0.34375        0.62963        0.2031433095238095        0        
C3        C        0.3125        0.648148        0.2031433095238095        0        
C4        C        0.34375        0.592592        0.2031433095238095        0        
C1        C        0.375        0.018519        0.2031433095238095        0        
C2        C        0.40625        0.074075        0.2031433095238095        0        
C3        C        0.375        0.092592        0.2031433095238095        0        
C4        C        0.40625        0.037037        0.2031433095238095        0        
C1        C        0.375        0.12963        0.2031433095238095        0        
C2        C        0.40625        0.185185        0.2031433095238095        0        
C3        C        0.375        0.203703        0.2031433095238095        0        
C4        C        0.40625        0.148148        0.2031433095238095        0        
C1        C        0.375        0.24074099999999998        0.2031433095238095        0        
C2        C        0.40625        0.296297        0.2031433095238095        0        
C3        C        0.375        0.314815        0.2031433095238095        0        
C4        C        0.40625        0.259259        0.2031433095238095        0        
C1        C        0.375        0.351852        0.2031433095238095        0        
C2        C        0.40625        0.407408        0.2031433095238095        0        
C3        C        0.375        0.42592500000000005        0.2031433095238095        0        
C4        C        0.40625        0.37037        0.2031433095238095        0        
C1        C        0.375        0.46296300000000007        0.2031433095238095        0        
C2        C        0.40625        0.518519        0.2031433095238095        0        
C3        C        0.375        0.537037        0.2031433095238095        0        
C4        C        0.40625        0.481481        0.2031433095238095        0        
C1        C        0.375        0.574075        0.2031433095238095        0        
C2        C        0.40625        0.62963        0.2031433095238095        0        
C3        C        0.375        0.648148        0.2031433095238095        0        
C4        C        0.40625        0.592592        0.2031433095238095        0        
C1        C        0.4375        0.018519        0.2031433095238095        0        
C2        C        0.46875        0.074075        0.2031433095238095        0        
C3        C        0.4375        0.092592        0.2031433095238095        0        
C4        C        0.46875        0.037037        0.2031433095238095        0        
C1        C        0.4375        0.12963        0.2031433095238095        0        
C2        C        0.46875        0.185185        0.2031433095238095        0        
C3        C        0.4375        0.203703        0.2031433095238095        0        
C4        C        0.46875        0.148148        0.2031433095238095        0        
C1        C        0.4375        0.24074099999999998        0.2031433095238095        0        
C2        C        0.46875        0.296297        0.2031433095238095        0        
C3        C        0.4375        0.314815        0.2031433095238095        0        
C4        C        0.46875        0.259259        0.2031433095238095        0        
C1        C        0.4375        0.351852        0.2031433095238095        0        
C2        C        0.46875        0.407408        0.2031433095238095        0        
C3        C        0.4375        0.42592500000000005        0.2031433095238095        0        
C4        C        0.46875        0.37037        0.2031433095238095        0        
C1        C        0.4375        0.46296300000000007        0.2031433095238095        0        
C2        C        0.46875        0.518519        0.2031433095238095        0        
C3        C        0.4375        0.537037        0.2031433095238095        0        
C4        C        0.46875        0.481481        0.2031433095238095        0        
C1        C        0.4375        0.574075        0.2031433095238095        0        
C2        C        0.46875        0.62963        0.2031433095238095        0        
C3        C        0.4375        0.648148        0.2031433095238095        0        
C4        C        0.46875        0.592592        0.2031433095238095        0        
C1        C        0.5        0.018519        0.2031433095238095        0        
C2        C        0.53125        0.074075        0.2031433095238095        0        
C3        C        0.5        0.092592        0.2031433095238095        0        
C4        C        0.53125        0.037037        0.2031433095238095        0        
C1        C        0.5        0.12963        0.2031433095238095        0        
C2        C        0.53125        0.185185        0.2031433095238095        0        
C3        C        0.5        0.203703        0.2031433095238095        0        
C4        C        0.53125        0.148148        0.2031433095238095        0        
C1        C        0.5        0.24074099999999998        0.2031433095238095        0        
C2        C        0.53125        0.296297        0.2031433095238095        0        
C3        C        0.5        0.314815        0.2031433095238095        0        
C4        C        0.53125        0.259259        0.2031433095238095        0        
C1        C        0.5        0.351852        0.2031433095238095        0        
C2        C        0.53125        0.407408        0.2031433095238095        0        
C3        C        0.5        0.42592500000000005        0.2031433095238095        0        
C4        C        0.53125        0.37037        0.2031433095238095        0        
C1        C        0.5        0.46296300000000007        0.2031433095238095        0        
C2        C        0.53125        0.518519        0.2031433095238095        0        
C3        C        0.5        0.537037        0.2031433095238095        0        
C4        C        0.53125        0.481481        0.2031433095238095        0        
C1        C        0.5        0.574075        0.2031433095238095        0        
C2        C        0.53125        0.62963        0.2031433095238095        0        
C3        C        0.5        0.648148        0.2031433095238095        0        
C4        C        0.53125        0.592592        0.2031433095238095        0        
C1        C        0.5625        0.018519        0.2031433095238095        0        
C2        C        0.59375        0.074075        0.2031433095238095        0        
C3        C        0.5625        0.092592        0.2031433095238095        0        
C4        C        0.59375        0.037037        0.2031433095238095        0        
C1        C        0.5625        0.12963        0.2031433095238095        0        
C2        C        0.59375        0.185185        0.2031433095238095        0        
C3        C        0.5625        0.203703        0.2031433095238095        0        
C4        C        0.59375        0.148148        0.2031433095238095        0        
C1        C        0.5625        0.24074099999999998        0.2031433095238095        0        
C2        C        0.59375        0.296297        0.2031433095238095        0        
C3        C        0.5625        0.314815        0.2031433095238095        0        
C4        C        0.59375        0.259259        0.2031433095238095        0        
C1        C        0.5625        0.351852        0.2031433095238095        0        
C2        C        0.59375        0.407408        0.2031433095238095        0        
C3        C        0.5625        0.42592500000000005        0.2031433095238095        0        
C4        C        0.59375        0.37037        0.2031433095238095        0        
C1        C        0.5625        0.46296300000000007        0.2031433095238095        0        
C2        C        0.59375        0.518519        0.2031433095238095        0        
C3        C        0.5625        0.537037        0.2031433095238095        0        
C4        C        0.59375        0.481481        0.2031433095238095        0        
C1        C        0.5625        0.574075        0.2031433095238095        0        
C2        C        0.59375        0.62963        0.2031433095238095        0        
C3        C        0.5625        0.648148        0.2031433095238095        0        
C4        C        0.59375        0.592592        0.2031433095238095        0        
C1        C        0.625        0.018519        0.2031433095238095        0        
C2        C        0.65625        0.074075        0.2031433095238095        0        
C3        C        0.625        0.092592        0.2031433095238095        0        
C4        C        0.65625        0.037037        0.2031433095238095        0        
C1        C        0.625        0.12963        0.2031433095238095        0        
C2        C        0.65625        0.185185        0.2031433095238095        0        
C3        C        0.625        0.203703        0.2031433095238095        0        
C4        C        0.65625        0.148148        0.2031433095238095        0        
C1        C        0.625        0.24074099999999998        0.2031433095238095        0        
C2        C        0.65625        0.296297        0.2031433095238095        0        
C3        C        0.625        0.314815        0.2031433095238095        0        
C4        C        0.65625        0.259259        0.2031433095238095        0        
C1        C        0.625        0.351852        0.2031433095238095        0        
C2        C        0.65625        0.407408        0.2031433095238095        0        
C3        C        0.625        0.42592500000000005        0.2031433095238095        0        
C4        C        0.65625        0.37037        0.2031433095238095        0        
C1        C        0.625        0.46296300000000007        0.2031433095238095        0        
C2        C        0.65625        0.518519        0.2031433095238095        0        
C3        C        0.625        0.537037        0.2031433095238095        0        
C4        C        0.65625        0.481481        0.2031433095238095        0        
C1        C        0.625        0.574075        0.2031433095238095        0        
C2        C        0.65625        0.62963        0.2031433095238095        0        
C3        C        0.625        0.648148        0.2031433095238095        0        
C4        C        0.65625        0.592592        0.2031433095238095        0        
C1        C        0.6875        0.018519        0.2031433095238095        0        
C2        C        0.71875        0.074075        0.2031433095238095        0        
C3        C        0.6875        0.092592        0.2031433095238095        0        
C4        C        0.71875        0.037037        0.2031433095238095        0        
C1        C        0.6875        0.12963        0.2031433095238095        0        
C2        C        0.71875        0.185185        0.2031433095238095        0        
C3        C        0.6875        0.203703        0.2031433095238095        0        
C4        C        0.71875        0.148148        0.2031433095238095        0        
C1        C        0.6875        0.24074099999999998        0.2031433095238095        0        
C2        C        0.71875        0.296297        0.2031433095238095        0        
C3        C        0.6875        0.314815        0.2031433095238095        0        
C4        C        0.71875        0.259259        0.2031433095238095        0        
C1        C        0.6875        0.351852        0.2031433095238095        0        
C2        C        0.71875        0.407408        0.2031433095238095        0        
C3        C        0.6875        0.42592500000000005        0.2031433095238095        0        
C4        C        0.71875        0.37037        0.2031433095238095        0        
C1        C        0.6875        0.46296300000000007        0.2031433095238095        0        
C2        C        0.71875        0.518519        0.2031433095238095        0        
C3        C        0.6875        0.537037        0.2031433095238095        0        
C4        C        0.71875        0.481481        0.2031433095238095        0        
C1        C        0.6875        0.574075        0.2031433095238095        0        
C2        C        0.71875        0.62963        0.2031433095238095        0        
C3        C        0.6875        0.648148        0.2031433095238095        0        
C4        C        0.71875        0.592592        0.2031433095238095        0        
C1        C        0.75        0.018519        0.2031433095238095        0        
C2        C        0.78125        0.074075        0.2031433095238095        0        
C3        C        0.75        0.092592        0.2031433095238095        0        
C4        C        0.78125        0.037037        0.2031433095238095        0        
C1        C        0.75        0.12963        0.2031433095238095        0        
C2        C        0.78125        0.185185        0.2031433095238095        0        
C3        C        0.75        0.203703        0.2031433095238095        0        
C4        C        0.78125        0.148148        0.2031433095238095        0        
C1        C        0.75        0.24074099999999998        0.2031433095238095        0        
C2        C        0.78125        0.296297        0.2031433095238095        0        
C3        C        0.75        0.314815        0.2031433095238095        0        
C4        C        0.78125        0.259259        0.2031433095238095        0        
C1        C        0.75        0.351852        0.2031433095238095        0        
C2        C        0.78125        0.407408        0.2031433095238095        0        
C3        C        0.75        0.42592500000000005        0.2031433095238095        0        
C4        C        0.78125        0.37037        0.2031433095238095        0        
C1        C        0.75        0.46296300000000007        0.2031433095238095        0        
C2        C        0.78125        0.518519        0.2031433095238095        0        
C3        C        0.75        0.537037        0.2031433095238095        0        
C4        C        0.78125        0.481481        0.2031433095238095        0        
C1        C        0.75        0.574075        0.2031433095238095        0        
C2        C        0.78125        0.62963        0.2031433095238095        0        
C3        C        0.75        0.648148        0.2031433095238095        0        
C4        C        0.78125        0.592592        0.2031433095238095        0        
C1        C        0.8125        0.018519        0.2031433095238095        0        
C2        C        0.84375        0.074075        0.2031433095238095        0        
C3        C        0.8125        0.092592        0.2031433095238095        0        
C4        C        0.84375        0.037037        0.2031433095238095        0        
C1        C        0.8125        0.12963        0.2031433095238095        0        
C2        C        0.84375        0.185185        0.2031433095238095        0        
C3        C        0.8125        0.203703        0.2031433095238095        0        
C4        C        0.84375        0.148148        0.2031433095238095        0        
C1        C        0.8125        0.24074099999999998        0.2031433095238095        0        
C2        C        0.84375        0.296297        0.2031433095238095        0        
C3        C        0.8125        0.314815        0.2031433095238095        0        
C4        C        0.84375        0.259259        0.2031433095238095        0        
C1        C        0.8125        0.351852        0.2031433095238095        0        
C2        C        0.84375        0.407408        0.2031433095238095        0        
C3        C        0.8125        0.42592500000000005        0.2031433095238095        0        
C4        C        0.84375        0.37037        0.2031433095238095        0        
C1        C        0.8125        0.46296300000000007        0.2031433095238095        0        
C2        C        0.84375        0.518519        0.2031433095238095        0        
C3        C        0.8125        0.537037        0.2031433095238095        0        
C4        C        0.84375        0.481481        0.2031433095238095        0        
C1        C        0.8125        0.574075        0.2031433095238095        0        
C2        C        0.84375        0.62963        0.2031433095238095        0        
C3        C        0.8125        0.648148        0.2031433095238095        0        
C4        C        0.84375        0.592592        0.2031433095238095        0        
C1        C        0.875        0.018519        0.2031433095238095        0        
C2        C        0.9062500000000001        0.074075        0.2031433095238095        0        
C3        C        0.875        0.092592        0.2031433095238095        0        
C4        C        0.9062500000000001        0.037037        0.2031433095238095        0        
C1        C        0.875        0.12963        0.2031433095238095        0        
C2        C        0.9062500000000001        0.185185        0.2031433095238095        0        
C3        C        0.875        0.203703        0.2031433095238095        0        
C4        C        0.9062500000000001        0.148148        0.2031433095238095        0        
C1        C        0.875        0.24074099999999998        0.2031433095238095        0        
C2        C        0.9062500000000001        0.296297        0.2031433095238095        0        
C3        C        0.875        0.314815        0.2031433095238095        0        
C4        C        0.9062500000000001        0.259259        0.2031433095238095        0        
C1        C        0.875        0.351852        0.2031433095238095        0        
C2        C        0.9062500000000001        0.407408        0.2031433095238095        0        
C3        C        0.875        0.42592500000000005        0.2031433095238095        0        
C4        C        0.9062500000000001        0.37037        0.2031433095238095        0        
C1        C        0.875        0.46296300000000007        0.2031433095238095        0        
C2        C        0.9062500000000001        0.518519        0.2031433095238095        0        
C3        C        0.875        0.537037        0.2031433095238095        0        
C4        C        0.9062500000000001        0.481481        0.2031433095238095        0        
C1        C        0.875        0.574075        0.2031433095238095        0        
C2        C        0.9062500000000001        0.62963        0.2031433095238095        0        
C3        C        0.875        0.648148        0.2031433095238095        0        
C4        C        0.9062500000000001        0.592592        0.2031433095238095        0        
C1        C        0.9375        0.018519        0.2031433095238095        0        
C2        C        0.9687500000000001        0.074075        0.2031433095238095        0        
C3        C        0.9375        0.092592        0.2031433095238095        0        
C4        C        0.9687500000000001        0.037037        0.2031433095238095        0        
C1        C        0.9375        0.12963        0.2031433095238095        0        
C2        C        0.9687500000000001        0.185185        0.2031433095238095        0        
C3        C        0.9375        0.203703        0.2031433095238095        0        
C4        C        0.9687500000000001        0.148148        0.2031433095238095        0        
C1        C        0.9375        0.24074099999999998        0.2031433095238095        0        
C2        C        0.9687500000000001        0.296297        0.2031433095238095        0        
C3        C        0.9375        0.314815        0.2031433095238095        0        
C4        C        0.9687500000000001        0.259259        0.2031433095238095        0        
C1        C        0.9375        0.351852        0.2031433095238095        0        
C2        C        0.9687500000000001        0.407408        0.2031433095238095        0        
C3        C        0.9375        0.42592500000000005        0.2031433095238095        0        
C4        C        0.9687500000000001        0.37037        0.2031433095238095        0        
C1        C        0.9375        0.46296300000000007        0.2031433095238095        0        
C2        C        0.9687500000000001        0.518519        0.2031433095238095        0        
C3        C        0.9375        0.537037        0.2031433095238095        0        
C4        C        0.9687500000000001        0.481481        0.2031433095238095        0        
C1        C        0.9375        0.574075        0.2031433095238095        0        
C2        C        0.9687500000000001        0.62963        0.2031433095238095        0        
C3        C        0.9375        0.648148        0.2031433095238095        0        
C4        C        0.9687500000000001        0.592592        0.2031433095238095        0        
C1        C        0.0        0.685186        0.2031433095238095        0        
C1        C        0.0625        0.685186        0.2031433095238095        0        
C1        C        0.125        0.685186        0.2031433095238095        0        
C1        C        0.1875        0.685186        0.2031433095238095        0        
C1        C        0.25        0.685186        0.2031433095238095        0        
C1        C        0.3125        0.685186        0.2031433095238095        0        
C1        C        0.375        0.685186        0.2031433095238095        0        
C1        C        0.4375        0.685186        0.2031433095238095        0        
C1        C        0.5        0.685186        0.2031433095238095        0        
C1        C        0.5625        0.685186        0.2031433095238095        0        
C1        C        0.625        0.685186        0.2031433095238095        0        
C1        C        0.6875        0.685186        0.2031433095238095        0        
C1        C        0.75        0.685186        0.2031433095238095        0        
C1        C        0.8125        0.685186        0.2031433095238095        0        
C1        C        0.875        0.685186        0.2031433095238095        0        
C1        C        0.9375        0.685186        0.2031433095238095        0        
C2        C        0.03125        0.740741        0.2031433095238095        0        
C2        C        0.09375        0.740741        0.2031433095238095        0        
C2        C        0.15625        0.740741        0.2031433095238095        0        
C2        C        0.21875        0.740741        0.2031433095238095        0        
C2        C        0.28125        0.740741        0.2031433095238095        0        
C2        C        0.34375        0.740741        0.2031433095238095        0        
C2        C        0.40625        0.740741        0.2031433095238095        0        
C2        C        0.46875        0.740741        0.2031433095238095        0        
C2        C        0.53125        0.740741        0.2031433095238095        0        
C2        C        0.59375        0.740741        0.2031433095238095        0        
C2        C        0.65625        0.740741        0.2031433095238095        0        
C2        C        0.71875        0.740741        0.2031433095238095        0        
C2        C        0.78125        0.740741        0.2031433095238095        0        
C2        C        0.84375        0.740741        0.2031433095238095        0        
C2        C        0.9062500000000001        0.740741        0.2031433095238095        0        
C2        C        0.9687500000000001        0.740741        0.2031433095238095        0        
C3        C        0.0        0.759259        0.2031433095238095        0        
C3        C        0.0625        0.759259        0.2031433095238095        0        
C3        C        0.125        0.759259        0.2031433095238095        0        
C3        C        0.1875        0.759259        0.2031433095238095        0        
C3        C        0.25        0.759259        0.2031433095238095        0        
C3        C        0.3125        0.759259        0.2031433095238095        0        
C3        C        0.375        0.759259        0.2031433095238095        0        
C3        C        0.4375        0.759259        0.2031433095238095        0        
C3        C        0.5        0.759259        0.2031433095238095        0        
C3        C        0.5625        0.759259        0.2031433095238095        0        
C3        C        0.625        0.759259        0.2031433095238095        0        
C3        C        0.6875        0.759259        0.2031433095238095        0        
C3        C        0.75        0.759259        0.2031433095238095        0        
C3        C        0.8125        0.759259        0.2031433095238095        0        
C3        C        0.875        0.759259        0.2031433095238095        0        
C3        C        0.9375        0.759259        0.2031433095238095        0        
C4        C        0.03125        0.703703        0.2031433095238095        0        
C4        C        0.09375        0.703703        0.2031433095238095        0        
C4        C        0.15625        0.703703        0.2031433095238095        0        
C4        C        0.21875        0.703703        0.2031433095238095        0        
C4        C        0.28125        0.703703        0.2031433095238095        0        
C4        C        0.34375        0.703703        0.2031433095238095        0        
C4        C        0.40625        0.703703        0.2031433095238095        0        
C4        C        0.46875        0.703703        0.2031433095238095        0        
C4        C        0.53125        0.703703        0.2031433095238095        0        
C4        C        0.59375        0.703703        0.2031433095238095        0        
C4        C        0.65625        0.703703        0.2031433095238095        0        
C4        C        0.71875        0.703703        0.2031433095238095        0        
C4        C        0.78125        0.703703        0.2031433095238095        0        
C4        C        0.84375        0.703703        0.2031433095238095        0        
C4        C        0.9062500000000001        0.703703        0.2031433095238095        0        
C4        C        0.9687500000000001        0.703703        0.2031433095238095        0        
C1        C        0.0        0.796297        0.2031433095238095        0        
C1        C        0.0625        0.796297        0.2031433095238095        0        
C1        C        0.125        0.796297        0.2031433095238095        0        
C1        C        0.1875        0.796297        0.2031433095238095        0        
C1        C        0.25        0.796297        0.2031433095238095        0        
C1        C        0.3125        0.796297        0.2031433095238095        0        
C1        C        0.375        0.796297        0.2031433095238095        0        
C1        C        0.4375        0.796297        0.2031433095238095        0        
C1        C        0.5        0.796297        0.2031433095238095        0        
C1        C        0.5625        0.796297        0.2031433095238095        0        
C1        C        0.625        0.796297        0.2031433095238095        0        
C1        C        0.6875        0.796297        0.2031433095238095        0        
C1        C        0.75        0.796297        0.2031433095238095        0        
C1        C        0.8125        0.796297        0.2031433095238095        0        
C1        C        0.875        0.796297        0.2031433095238095        0        
C1        C        0.9375        0.796297        0.2031433095238095        0        
C2        C        0.03125        0.851852        0.2031433095238095        0        
C2        C        0.09375        0.851852        0.2031433095238095        0        
C2        C        0.15625        0.851852        0.2031433095238095        0        
C2        C        0.21875        0.851852        0.2031433095238095        0        
C2        C        0.28125        0.851852        0.2031433095238095        0        
C2        C        0.34375        0.851852        0.2031433095238095        0        
C2        C        0.40625        0.851852        0.2031433095238095        0        
C2        C        0.46875        0.851852        0.2031433095238095        0        
C2        C        0.53125        0.851852        0.2031433095238095        0        
C2        C        0.59375        0.851852        0.2031433095238095        0        
C2        C        0.65625        0.851852        0.2031433095238095        0        
C2        C        0.71875        0.851852        0.2031433095238095        0        
C2        C        0.78125        0.851852        0.2031433095238095        0        
C2        C        0.84375        0.851852        0.2031433095238095        0        
C2        C        0.9062500000000001        0.851852        0.2031433095238095        0        
C2        C        0.9687500000000001        0.851852        0.2031433095238095        0        
C3        C        0.0        0.87037        0.2031433095238095        0        
C3        C        0.0625        0.87037        0.2031433095238095        0        
C3        C        0.125        0.87037        0.2031433095238095        0        
C3        C        0.1875        0.87037        0.2031433095238095        0        
C3        C        0.25        0.87037        0.2031433095238095        0        
C3        C        0.3125        0.87037        0.2031433095238095        0        
C3        C        0.375        0.87037        0.2031433095238095        0        
C3        C        0.4375        0.87037        0.2031433095238095        0        
C3        C        0.5        0.87037        0.2031433095238095        0        
C3        C        0.5625        0.87037        0.2031433095238095        0        
C3        C        0.625        0.87037        0.2031433095238095        0        
C3        C        0.6875        0.87037        0.2031433095238095        0        
C3        C        0.75        0.87037        0.2031433095238095        0        
C3        C        0.8125        0.87037        0.2031433095238095        0        
C3        C        0.875        0.87037        0.2031433095238095        0        
C3        C        0.9375        0.87037        0.2031433095238095        0        
C4        C        0.03125        0.814814        0.2031433095238095        0        
C4        C        0.09375        0.814814        0.2031433095238095        0        
C4        C        0.15625        0.814814        0.2031433095238095        0        
C4        C        0.21875        0.814814        0.2031433095238095        0        
C4        C        0.28125        0.814814        0.2031433095238095        0        
C4        C        0.34375        0.814814        0.2031433095238095        0        
C4        C        0.40625        0.814814        0.2031433095238095        0        
C4        C        0.46875        0.814814        0.2031433095238095        0        
C4        C        0.53125        0.814814        0.2031433095238095        0        
C4        C        0.59375        0.814814        0.2031433095238095        0        
C4        C        0.65625        0.814814        0.2031433095238095        0        
C4        C        0.71875        0.814814        0.2031433095238095        0        
C4        C        0.78125        0.814814        0.2031433095238095        0        
C4        C        0.84375        0.814814        0.2031433095238095        0        
C4        C        0.9062500000000001        0.814814        0.2031433095238095        0        
C4        C        0.9687500000000001        0.814814        0.2031433095238095        0        
C1        C        0.0        0.907408        0.2031433095238095        0        
C1        C        0.0625        0.907408        0.2031433095238095        0        
C1        C        0.125        0.907408        0.2031433095238095        0        
C1        C        0.1875        0.907408        0.2031433095238095        0        
C1        C        0.25        0.907408        0.2031433095238095        0        
C1        C        0.3125        0.907408        0.2031433095238095        0        
C1        C        0.375        0.907408        0.2031433095238095        0        
C1        C        0.4375        0.907408        0.2031433095238095        0        
C1        C        0.5        0.907408        0.2031433095238095        0        
C1        C        0.5625        0.907408        0.2031433095238095        0        
C1        C        0.625        0.907408        0.2031433095238095        0        
C1        C        0.6875        0.907408        0.2031433095238095        0        
C1        C        0.75        0.907408        0.2031433095238095        0        
C1        C        0.8125        0.907408        0.2031433095238095        0        
C1        C        0.875        0.907408        0.2031433095238095        0        
C1        C        0.9375        0.907408        0.2031433095238095        0        
C2        C        0.03125        0.962963        0.2031433095238095        0        
C2        C        0.09375        0.962963        0.2031433095238095        0        
C2        C        0.15625        0.962963        0.2031433095238095        0        
C2        C        0.21875        0.962963        0.2031433095238095        0        
C2        C        0.28125        0.962963        0.2031433095238095        0        
C2        C        0.34375        0.962963        0.2031433095238095        0        
C2        C        0.40625        0.962963        0.2031433095238095        0        
C2        C        0.46875        0.962963        0.2031433095238095        0        
C2        C        0.53125        0.962963        0.2031433095238095        0        
C2        C        0.59375        0.962963        0.2031433095238095        0        
C2        C        0.65625        0.962963        0.2031433095238095        0        
C2        C        0.71875        0.962963        0.2031433095238095        0        
C2        C        0.78125        0.962963        0.2031433095238095        0        
C2        C        0.84375        0.962963        0.2031433095238095        0        
C2        C        0.9062500000000001        0.962963        0.2031433095238095        0        
C2        C        0.9687500000000001        0.962963        0.2031433095238095        0        
C3        C        0.0        0.9814809999999999        0.2031433095238095        0        
C3        C        0.0625        0.9814809999999999        0.2031433095238095        0        
C3        C        0.125        0.9814809999999999        0.2031433095238095        0        
C3        C        0.1875        0.9814809999999999        0.2031433095238095        0        
C3        C        0.25        0.9814809999999999        0.2031433095238095        0        
C3        C        0.3125        0.9814809999999999        0.2031433095238095        0        
C3        C        0.375        0.9814809999999999        0.2031433095238095        0        
C3        C        0.4375        0.9814809999999999        0.2031433095238095        0        
C3        C        0.5        0.9814809999999999        0.2031433095238095        0        
C3        C        0.5625        0.9814809999999999        0.2031433095238095        0        
C3        C        0.625        0.9814809999999999        0.2031433095238095        0        
C3        C        0.6875        0.9814809999999999        0.2031433095238095        0        
C3        C        0.75        0.9814809999999999        0.2031433095238095        0        
C3        C        0.8125        0.9814809999999999        0.2031433095238095        0        
C3        C        0.875        0.9814809999999999        0.2031433095238095        0        
C3        C        0.9375        0.9814809999999999        0.2031433095238095        0        
C4        C        0.03125        0.925925        0.2031433095238095        0        
C4        C        0.09375        0.925925        0.2031433095238095        0        
C4        C        0.15625        0.925925        0.2031433095238095        0        
C4        C        0.21875        0.925925        0.2031433095238095        0        
C4        C        0.28125        0.925925        0.2031433095238095        0        
C4        C        0.34375        0.925925        0.2031433095238095        0        
C4        C        0.40625        0.925925        0.2031433095238095        0        
C4        C        0.46875        0.925925        0.2031433095238095        0        
C4        C        0.53125        0.925925        0.2031433095238095        0        
C4        C        0.59375        0.925925        0.2031433095238095        0        
C4        C        0.65625        0.925925        0.2031433095238095        0        
C4        C        0.71875        0.925925        0.2031433095238095        0        
C4        C        0.78125        0.925925        0.2031433095238095        0        
C4        C        0.84375        0.925925        0.2031433095238095        0        
C4        C        0.9062500000000001        0.925925        0.2031433095238095        0        
C4        C        0.9687500000000001        0.925925        0.2031433095238095        0        
C_FG        C        0.0        0.018519        0.33607930952380954        0.2        
C2        C        0.03125        0.074075        0.33607930952380954        0        
C3        C        0.0        0.092592        0.33607930952380954        0        
C4        C        0.03125        0.037037        0.33607930952380954        0        
C1        C        0.0        0.12963        0.33607930952380954        0        
C2        C        0.03125        0.185185        0.33607930952380954        0        
C3        C        0.0        0.203703        0.33607930952380954        0        
C4        C        0.03125        0.148148        0.33607930952380954        0        
C1        C        0.0        0.24074099999999998        0.33607930952380954        0        
C2        C        0.03125        0.296297        0.33607930952380954        0        
C_FG        C        0.0        0.314815        0.33607930952380954        0.2        
C4        C        0.03125        0.259259        0.33607930952380954        0        
C1        C        0.0        0.351852        0.33607930952380954        0        
C2        C        0.03125        0.407408        0.33607930952380954        0        
C3        C        0.0        0.42592500000000005        0.33607930952380954        0        
C4        C        0.03125        0.37037        0.33607930952380954        0        
C1        C        0.0        0.46296300000000007        0.33607930952380954        0        
C2        C        0.03125        0.518519        0.33607930952380954        0        
C3        C        0.0        0.537037        0.33607930952380954        0        
C4        C        0.03125        0.481481        0.33607930952380954        0        
C_FG        C        0.0        0.574075        0.33607930952380954        0.2        
C2        C        0.03125        0.62963        0.33607930952380954        0        
C3        C        0.0        0.648148        0.33607930952380954        0        
C4        C        0.03125        0.592592        0.33607930952380954        0        
C1        C        0.0625        0.018519        0.33607930952380954        0        
C2        C        0.09375        0.074075        0.33607930952380954        0        
C3        C        0.0625        0.092592        0.33607930952380954        0        
C4        C        0.09375        0.037037        0.33607930952380954        0        
C1        C        0.0625        0.12963        0.33607930952380954        0        
C2        C        0.09375        0.185185        0.33607930952380954        0        
C3        C        0.0625        0.203703        0.33607930952380954        0        
C4        C        0.09375        0.148148        0.33607930952380954        0        
C1        C        0.0625        0.24074099999999998        0.33607930952380954        0        
C2        C        0.09375        0.296297        0.33607930952380954        0        
C3        C        0.0625        0.314815        0.33607930952380954        0        
C4        C        0.09375        0.259259        0.33607930952380954        0        
C1        C        0.0625        0.351852        0.33607930952380954        0        
C2        C        0.09375        0.407408        0.33607930952380954        0        
C3        C        0.0625        0.42592500000000005        0.33607930952380954        0        
C4        C        0.09375        0.37037        0.33607930952380954        0        
C1        C        0.0625        0.46296300000000007        0.33607930952380954        0        
C2        C        0.09375        0.518519        0.33607930952380954        0        
C3        C        0.0625        0.537037        0.33607930952380954        0        
C4        C        0.09375        0.481481        0.33607930952380954        0        
C1        C        0.0625        0.574075        0.33607930952380954        0        
C2        C        0.09375        0.62963        0.33607930952380954        0        
C3        C        0.0625        0.648148        0.33607930952380954        0        
C4        C        0.09375        0.592592        0.33607930952380954        0        
C1        C        0.125        0.018519        0.33607930952380954        0        
C2        C        0.15625        0.074075        0.33607930952380954        0        
C3        C        0.125        0.092592        0.33607930952380954        0        
C4        C        0.15625        0.037037        0.33607930952380954        0        
C1        C        0.125        0.12963        0.33607930952380954        0        
C2        C        0.15625        0.185185        0.33607930952380954        0        
C3        C        0.125        0.203703        0.33607930952380954        0        
C4        C        0.15625        0.148148        0.33607930952380954        0        
C1        C        0.125        0.24074099999999998        0.33607930952380954        0        
C2        C        0.15625        0.296297        0.33607930952380954        0        
C3        C        0.125        0.314815        0.33607930952380954        0        
C4        C        0.15625        0.259259        0.33607930952380954        0        
C1        C        0.125        0.351852        0.33607930952380954        0        
C2        C        0.15625        0.407408        0.33607930952380954        0        
C3        C        0.125        0.42592500000000005        0.33607930952380954        0        
C4        C        0.15625        0.37037        0.33607930952380954        0        
C1        C        0.125        0.46296300000000007        0.33607930952380954        0        
C2        C        0.15625        0.518519        0.33607930952380954        0        
C3        C        0.125        0.537037        0.33607930952380954        0        
C4        C        0.15625        0.481481        0.33607930952380954        0        
C1        C        0.125        0.574075        0.33607930952380954        0        
C2        C        0.15625        0.62963        0.33607930952380954        0        
C3        C        0.125        0.648148        0.33607930952380954        0        
C4        C        0.15625        0.592592        0.33607930952380954        0        
C1        C        0.1875        0.018519        0.33607930952380954        0        
C2        C        0.21875        0.074075        0.33607930952380954        0        
C3        C        0.1875        0.092592        0.33607930952380954        0        
C4        C        0.21875        0.037037        0.33607930952380954        0        
C1        C        0.1875        0.12963        0.33607930952380954        0        
C2        C        0.21875        0.185185        0.33607930952380954        0        
C3        C        0.1875        0.203703        0.33607930952380954        0        
C4        C        0.21875        0.148148        0.33607930952380954        0        
C1        C        0.1875        0.24074099999999998        0.33607930952380954        0        
C2        C        0.21875        0.296297        0.33607930952380954        0        
C3        C        0.1875        0.314815        0.33607930952380954        0        
C4        C        0.21875        0.259259        0.33607930952380954        0        
C1        C        0.1875        0.351852        0.33607930952380954        0        
C2        C        0.21875        0.407408        0.33607930952380954        0        
C3        C        0.1875        0.42592500000000005        0.33607930952380954        0        
C4        C        0.21875        0.37037        0.33607930952380954        0        
C1        C        0.1875        0.46296300000000007        0.33607930952380954        0        
C2        C        0.21875        0.518519        0.33607930952380954        0        
C3        C        0.1875        0.537037        0.33607930952380954        0        
C4        C        0.21875        0.481481        0.33607930952380954        0        
C1        C        0.1875        0.574075        0.33607930952380954        0        
C2        C        0.21875        0.62963        0.33607930952380954        0        
C3        C        0.1875        0.648148        0.33607930952380954        0        
C4        C        0.21875        0.592592        0.33607930952380954        0        
C_FG        C        0.25        0.018519        0.33607930952380954        0.2        
C2        C        0.28125        0.074075        0.33607930952380954        0        
C3        C        0.25        0.092592        0.33607930952380954        0        
C4        C        0.28125        0.037037        0.33607930952380954        0        
C1        C        0.25        0.12963        0.33607930952380954        0        
C2        C        0.28125        0.185185        0.33607930952380954        0        
C3        C        0.25        0.203703        0.33607930952380954        0        
C4        C        0.28125        0.148148        0.33607930952380954        0        
C1        C        0.25        0.24074099999999998        0.33607930952380954        0        
C2        C        0.28125        0.296297        0.33607930952380954        0        
C_FG        C        0.25        0.314815        0.33607930952380954        0.2        
C4        C        0.28125        0.259259        0.33607930952380954        0        
C1        C        0.25        0.351852        0.33607930952380954        0        
C2        C        0.28125        0.407408        0.33607930952380954        0        
C3        C        0.25        0.42592500000000005        0.33607930952380954        0        
C4        C        0.28125        0.37037        0.33607930952380954        0        
C1        C        0.25        0.46296300000000007        0.33607930952380954        0        
C2        C        0.28125        0.518519        0.33607930952380954        0        
C3        C        0.25        0.537037        0.33607930952380954        0        
C4        C        0.28125        0.481481        0.33607930952380954        0        
C_FG        C        0.25        0.574075        0.33607930952380954        0.2        
C2        C        0.28125        0.62963        0.33607930952380954        0        
C3        C        0.25        0.648148        0.33607930952380954        0        
C4        C        0.28125        0.592592        0.33607930952380954        0        
C1        C        0.3125        0.018519        0.33607930952380954        0        
C2        C        0.34375        0.074075        0.33607930952380954        0        
C3        C        0.3125        0.092592        0.33607930952380954        0        
C4        C        0.34375        0.037037        0.33607930952380954        0        
C1        C        0.3125        0.12963        0.33607930952380954        0        
C2        C        0.34375        0.185185        0.33607930952380954        0        
C3        C        0.3125        0.203703        0.33607930952380954        0        
C4        C        0.34375        0.148148        0.33607930952380954        0        
C1        C        0.3125        0.24074099999999998        0.33607930952380954        0        
C2        C        0.34375        0.296297        0.33607930952380954        0        
C3        C        0.3125        0.314815        0.33607930952380954        0        
C4        C        0.34375        0.259259        0.33607930952380954        0        
C1        C        0.3125        0.351852        0.33607930952380954        0        
C2        C        0.34375        0.407408        0.33607930952380954        0        
C3        C        0.3125        0.42592500000000005        0.33607930952380954        0        
C4        C        0.34375        0.37037        0.33607930952380954        0        
C1        C        0.3125        0.46296300000000007        0.33607930952380954        0        
C2        C        0.34375        0.518519        0.33607930952380954        0        
C3        C        0.3125        0.537037        0.33607930952380954        0        
C4        C        0.34375        0.481481        0.33607930952380954        0        
C1        C        0.3125        0.574075        0.33607930952380954        0        
C2        C        0.34375        0.62963        0.33607930952380954        0        
C3        C        0.3125        0.648148        0.33607930952380954        0        
C4        C        0.34375        0.592592        0.33607930952380954        0        
C1        C        0.375        0.018519        0.33607930952380954        0        
C2        C        0.40625        0.074075        0.33607930952380954        0        
C3        C        0.375        0.092592        0.33607930952380954        0        
C4        C        0.40625        0.037037        0.33607930952380954        0        
C1        C        0.375        0.12963        0.33607930952380954        0        
C2        C        0.40625        0.185185        0.33607930952380954        0        
C3        C        0.375        0.203703        0.33607930952380954        0        
C4        C        0.40625        0.148148        0.33607930952380954        0        
C1        C        0.375        0.24074099999999998        0.33607930952380954        0        
C2        C        0.40625        0.296297        0.33607930952380954        0        
C3        C        0.375        0.314815        0.33607930952380954        0        
C4        C        0.40625        0.259259        0.33607930952380954        0        
C1        C        0.375        0.351852        0.33607930952380954        0        
C2        C        0.40625        0.407408        0.33607930952380954        0        
C3        C        0.375        0.42592500000000005        0.33607930952380954        0        
C4        C        0.40625        0.37037        0.33607930952380954        0        
C1        C        0.375        0.46296300000000007        0.33607930952380954        0        
C2        C        0.40625        0.518519        0.33607930952380954        0        
C3        C        0.375        0.537037        0.33607930952380954        0        
C4        C        0.40625        0.481481        0.33607930952380954        0        
C1        C        0.375        0.574075        0.33607930952380954        0        
C2        C        0.40625        0.62963        0.33607930952380954        0        
C3        C        0.375        0.648148        0.33607930952380954        0        
C4        C        0.40625        0.592592        0.33607930952380954        0        
C1        C        0.4375        0.018519        0.33607930952380954        0        
C2        C        0.46875        0.074075        0.33607930952380954        0        
C3        C        0.4375        0.092592        0.33607930952380954        0        
C4        C        0.46875        0.037037        0.33607930952380954        0        
C1        C        0.4375        0.12963        0.33607930952380954        0        
C2        C        0.46875        0.185185        0.33607930952380954        0        
C3        C        0.4375        0.203703        0.33607930952380954        0        
C4        C        0.46875        0.148148        0.33607930952380954        0        
C1        C        0.4375        0.24074099999999998        0.33607930952380954        0        
C2        C        0.46875        0.296297        0.33607930952380954        0        
C3        C        0.4375        0.314815        0.33607930952380954        0        
C4        C        0.46875        0.259259        0.33607930952380954        0        
C1        C        0.4375        0.351852        0.33607930952380954        0        
C2        C        0.46875        0.407408        0.33607930952380954        0        
C3        C        0.4375        0.42592500000000005        0.33607930952380954        0        
C4        C        0.46875        0.37037        0.33607930952380954        0        
C1        C        0.4375        0.46296300000000007        0.33607930952380954        0        
C2        C        0.46875        0.518519        0.33607930952380954        0        
C3        C        0.4375        0.537037        0.33607930952380954        0        
C4        C        0.46875        0.481481        0.33607930952380954        0        
C1        C        0.4375        0.574075        0.33607930952380954        0        
C2        C        0.46875        0.62963        0.33607930952380954        0        
C3        C        0.4375        0.648148        0.33607930952380954        0        
C4        C        0.46875        0.592592        0.33607930952380954        0        
C_FG        C        0.5        0.018519        0.33607930952380954        0.2        
C2        C        0.53125        0.074075        0.33607930952380954        0        
C3        C        0.5        0.092592        0.33607930952380954        0        
C4        C        0.53125        0.037037        0.33607930952380954        0        
C1        C        0.5        0.12963        0.33607930952380954        0        
C2        C        0.53125        0.185185        0.33607930952380954        0        
C3        C        0.5        0.203703        0.33607930952380954        0        
C4        C        0.53125        0.148148        0.33607930952380954        0        
C1        C        0.5        0.24074099999999998        0.33607930952380954        0        
C2        C        0.53125        0.296297        0.33607930952380954        0        
C_FG        C        0.5        0.314815        0.33607930952380954        0.2        
C4        C        0.53125        0.259259        0.33607930952380954        0        
C1        C        0.5        0.351852        0.33607930952380954        0        
C2        C        0.53125        0.407408        0.33607930952380954        0        
C3        C        0.5        0.42592500000000005        0.33607930952380954        0        
C4        C        0.53125        0.37037        0.33607930952380954        0        
C1        C        0.5        0.46296300000000007        0.33607930952380954        0        
C2        C        0.53125        0.518519        0.33607930952380954        0        
C3        C        0.5        0.537037        0.33607930952380954        0        
C4        C        0.53125        0.481481        0.33607930952380954        0        
C_FG        C        0.5        0.574075        0.33607930952380954        0.2        
C2        C        0.53125        0.62963        0.33607930952380954        0        
C3        C        0.5        0.648148        0.33607930952380954        0        
C4        C        0.53125        0.592592        0.33607930952380954        0        
C1        C        0.5625        0.018519        0.33607930952380954        0        
C2        C        0.59375        0.074075        0.33607930952380954        0        
C3        C        0.5625        0.092592        0.33607930952380954        0        
C4        C        0.59375        0.037037        0.33607930952380954        0        
C1        C        0.5625        0.12963        0.33607930952380954        0        
C2        C        0.59375        0.185185        0.33607930952380954        0        
C3        C        0.5625        0.203703        0.33607930952380954        0        
C4        C        0.59375        0.148148        0.33607930952380954        0        
C1        C        0.5625        0.24074099999999998        0.33607930952380954        0        
C2        C        0.59375        0.296297        0.33607930952380954        0        
C3        C        0.5625        0.314815        0.33607930952380954        0        
C4        C        0.59375        0.259259        0.33607930952380954        0        
C1        C        0.5625        0.351852        0.33607930952380954        0        
C2        C        0.59375        0.407408        0.33607930952380954        0        
C3        C        0.5625        0.42592500000000005        0.33607930952380954        0        
C4        C        0.59375        0.37037        0.33607930952380954        0        
C1        C        0.5625        0.46296300000000007        0.33607930952380954        0        
C2        C        0.59375        0.518519        0.33607930952380954        0        
C3        C        0.5625        0.537037        0.33607930952380954        0        
C4        C        0.59375        0.481481        0.33607930952380954        0        
C1        C        0.5625        0.574075        0.33607930952380954        0        
C2        C        0.59375        0.62963        0.33607930952380954        0        
C3        C        0.5625        0.648148        0.33607930952380954        0        
C4        C        0.59375        0.592592        0.33607930952380954        0        
C1        C        0.625        0.018519        0.33607930952380954        0        
C2        C        0.65625        0.074075        0.33607930952380954        0        
C3        C        0.625        0.092592        0.33607930952380954        0        
C4        C        0.65625        0.037037        0.33607930952380954        0        
C1        C        0.625        0.12963        0.33607930952380954        0        
C2        C        0.65625        0.185185        0.33607930952380954        0        
C3        C        0.625        0.203703        0.33607930952380954        0        
C4        C        0.65625        0.148148        0.33607930952380954        0        
C1        C        0.625        0.24074099999999998        0.33607930952380954        0        
C2        C        0.65625        0.296297        0.33607930952380954        0        
C3        C        0.625        0.314815        0.33607930952380954        0        
C4        C        0.65625        0.259259        0.33607930952380954        0        
C1        C        0.625        0.351852        0.33607930952380954        0        
C2        C        0.65625        0.407408        0.33607930952380954        0        
C3        C        0.625        0.42592500000000005        0.33607930952380954        0        
C4        C        0.65625        0.37037        0.33607930952380954        0        
C1        C        0.625        0.46296300000000007        0.33607930952380954        0        
C2        C        0.65625        0.518519        0.33607930952380954        0        
C3        C        0.625        0.537037        0.33607930952380954        0        
C4        C        0.65625        0.481481        0.33607930952380954        0        
C1        C        0.625        0.574075        0.33607930952380954        0        
C2        C        0.65625        0.62963        0.33607930952380954        0        
C3        C        0.625        0.648148        0.33607930952380954        0        
C4        C        0.65625        0.592592        0.33607930952380954        0        
C1        C        0.6875        0.018519        0.33607930952380954        0        
C2        C        0.71875        0.074075        0.33607930952380954        0        
C3        C        0.6875        0.092592        0.33607930952380954        0        
C4        C        0.71875        0.037037        0.33607930952380954        0        
C1        C        0.6875        0.12963        0.33607930952380954        0        
C2        C        0.71875        0.185185        0.33607930952380954        0        
C3        C        0.6875        0.203703        0.33607930952380954        0        
C4        C        0.71875        0.148148        0.33607930952380954        0        
C1        C        0.6875        0.24074099999999998        0.33607930952380954        0        
C2        C        0.71875        0.296297        0.33607930952380954        0        
C3        C        0.6875        0.314815        0.33607930952380954        0        
C4        C        0.71875        0.259259        0.33607930952380954        0        
C1        C        0.6875        0.351852        0.33607930952380954        0        
C2        C        0.71875        0.407408        0.33607930952380954        0        
C3        C        0.6875        0.42592500000000005        0.33607930952380954        0        
C4        C        0.71875        0.37037        0.33607930952380954        0        
C1        C        0.6875        0.46296300000000007        0.33607930952380954        0        
C2        C        0.71875        0.518519        0.33607930952380954        0        
C3        C        0.6875        0.537037        0.33607930952380954        0        
C4        C        0.71875        0.481481        0.33607930952380954        0        
C1        C        0.6875        0.574075        0.33607930952380954        0        
C2        C        0.71875        0.62963        0.33607930952380954        0        
C3        C        0.6875        0.648148        0.33607930952380954        0        
C4        C        0.71875        0.592592        0.33607930952380954        0        
C_FG        C        0.75        0.018519        0.33607930952380954        0.2        
C2        C        0.78125        0.074075        0.33607930952380954        0        
C3        C        0.75        0.092592        0.33607930952380954        0        
C4        C        0.78125        0.037037        0.33607930952380954        0        
C1        C        0.75        0.12963        0.33607930952380954        0        
C2        C        0.78125        0.185185        0.33607930952380954        0        
C3        C        0.75        0.203703        0.33607930952380954        0        
C4        C        0.78125        0.148148        0.33607930952380954        0        
C1        C        0.75        0.24074099999999998        0.33607930952380954        0        
C2        C        0.78125        0.296297        0.33607930952380954        0        
C_FG        C        0.75        0.314815        0.33607930952380954        0.2        
C4        C        0.78125        0.259259        0.33607930952380954        0        
C1        C        0.75        0.351852        0.33607930952380954        0        
C2        C        0.78125        0.407408        0.33607930952380954        0        
C3        C        0.75        0.42592500000000005        0.33607930952380954        0        
C4        C        0.78125        0.37037        0.33607930952380954        0        
C1        C        0.75        0.46296300000000007        0.33607930952380954        0        
C2        C        0.78125        0.518519        0.33607930952380954        0        
C3        C        0.75        0.537037        0.33607930952380954        0        
C4        C        0.78125        0.481481        0.33607930952380954        0        
C_FG        C        0.75        0.574075        0.33607930952380954        0.2        
C2        C        0.78125        0.62963        0.33607930952380954        0        
C3        C        0.75        0.648148        0.33607930952380954        0        
C4        C        0.78125        0.592592        0.33607930952380954        0        
C1        C        0.8125        0.018519        0.33607930952380954        0        
C2        C        0.84375        0.074075        0.33607930952380954        0        
C3        C        0.8125        0.092592        0.33607930952380954        0        
C4        C        0.84375        0.037037        0.33607930952380954        0        
C1        C        0.8125        0.12963        0.33607930952380954        0        
C2        C        0.84375        0.185185        0.33607930952380954        0        
C3        C        0.8125        0.203703        0.33607930952380954        0        
C4        C        0.84375        0.148148        0.33607930952380954        0        
C1        C        0.8125        0.24074099999999998        0.33607930952380954        0        
C2        C        0.84375        0.296297        0.33607930952380954        0        
C3        C        0.8125        0.314815        0.33607930952380954        0        
C4        C        0.84375        0.259259        0.33607930952380954        0        
C1        C        0.8125        0.351852        0.33607930952380954        0        
C2        C        0.84375        0.407408        0.33607930952380954        0        
C3        C        0.8125        0.42592500000000005        0.33607930952380954        0        
C4        C        0.84375        0.37037        0.33607930952380954        0        
C1        C        0.8125        0.46296300000000007        0.33607930952380954        0        
C2        C        0.84375        0.518519        0.33607930952380954        0        
C3        C        0.8125        0.537037        0.33607930952380954        0        
C4        C        0.84375        0.481481        0.33607930952380954        0        
C1        C        0.8125        0.574075        0.33607930952380954        0        
C2        C        0.84375        0.62963        0.33607930952380954        0        
C3        C        0.8125        0.648148        0.33607930952380954        0        
C4        C        0.84375        0.592592        0.33607930952380954        0        
C1        C        0.875        0.018519        0.33607930952380954        0        
C2        C        0.9062500000000001        0.074075        0.33607930952380954        0        
C3        C        0.875        0.092592        0.33607930952380954        0        
C4        C        0.9062500000000001        0.037037        0.33607930952380954        0        
C1        C        0.875        0.12963        0.33607930952380954        0        
C2        C        0.9062500000000001        0.185185        0.33607930952380954        0        
C3        C        0.875        0.203703        0.33607930952380954        0        
C4        C        0.9062500000000001        0.148148        0.33607930952380954        0        
C1        C        0.875        0.24074099999999998        0.33607930952380954        0        
C2        C        0.9062500000000001        0.296297        0.33607930952380954        0        
C3        C        0.875        0.314815        0.33607930952380954        0        
C4        C        0.9062500000000001        0.259259        0.33607930952380954        0        
C1        C        0.875        0.351852        0.33607930952380954        0        
C2        C        0.9062500000000001        0.407408        0.33607930952380954        0        
C3        C        0.875        0.42592500000000005        0.33607930952380954        0        
C4        C        0.9062500000000001        0.37037        0.33607930952380954        0        
C1        C        0.875        0.46296300000000007        0.33607930952380954        0        
C2        C        0.9062500000000001        0.518519        0.33607930952380954        0        
C3        C        0.875        0.537037        0.33607930952380954        0        
C4        C        0.9062500000000001        0.481481        0.33607930952380954        0        
C1        C        0.875        0.574075        0.33607930952380954        0        
C2        C        0.9062500000000001        0.62963        0.33607930952380954        0        
C3        C        0.875        0.648148        0.33607930952380954        0        
C4        C        0.9062500000000001        0.592592        0.33607930952380954        0        
C1        C        0.9375        0.018519        0.33607930952380954        0        
C2        C        0.9687500000000001        0.074075        0.33607930952380954        0        
C3        C        0.9375        0.092592        0.33607930952380954        0        
C4        C        0.9687500000000001        0.037037        0.33607930952380954        0        
C1        C        0.9375        0.12963        0.33607930952380954        0        
C2        C        0.9687500000000001        0.185185        0.33607930952380954        0        
C3        C        0.9375        0.203703        0.33607930952380954        0        
C4        C        0.9687500000000001        0.148148        0.33607930952380954        0        
C1        C        0.9375        0.24074099999999998        0.33607930952380954        0        
C2        C        0.9687500000000001        0.296297        0.33607930952380954        0        
C3        C        0.9375        0.314815        0.33607930952380954        0        
C4        C        0.9687500000000001        0.259259        0.33607930952380954        0        
C1        C        0.9375        0.351852        0.33607930952380954        0        
C2        C        0.9687500000000001        0.407408        0.33607930952380954        0        
C3        C        0.9375        0.42592500000000005        0.33607930952380954        0        
C4        C        0.9687500000000001        0.37037        0.33607930952380954        0        
C1        C        0.9375        0.46296300000000007        0.33607930952380954        0        
C2        C        0.9687500000000001        0.518519        0.33607930952380954        0        
C3        C        0.9375        0.537037        0.33607930952380954        0        
C4        C        0.9687500000000001        0.481481        0.33607930952380954        0        
C1        C        0.9375        0.574075        0.33607930952380954        0        
C2        C        0.9687500000000001        0.62963        0.33607930952380954        0        
C3        C        0.9375        0.648148        0.33607930952380954        0        
C4        C        0.9687500000000001        0.592592        0.33607930952380954        0        
C1        C        0.0        0.685186        0.33607930952380954        0        
C1        C        0.0625        0.685186        0.33607930952380954        0        
C1        C        0.125        0.685186        0.33607930952380954        0        
C1        C        0.1875        0.685186        0.33607930952380954        0        
C1        C        0.25        0.685186        0.33607930952380954        0        
C1        C        0.3125        0.685186        0.33607930952380954        0        
C1        C        0.375        0.685186        0.33607930952380954        0        
C1        C        0.4375        0.685186        0.33607930952380954        0        
C1        C        0.5        0.685186        0.33607930952380954        0        
C1        C        0.5625        0.685186        0.33607930952380954        0        
C1        C        0.625        0.685186        0.33607930952380954        0        
C1        C        0.6875        0.685186        0.33607930952380954        0        
C1        C        0.75        0.685186        0.33607930952380954        0        
C1        C        0.8125        0.685186        0.33607930952380954        0        
C1        C        0.875        0.685186        0.33607930952380954        0        
C1        C        0.9375        0.685186        0.33607930952380954        0        
C2        C        0.03125        0.740741        0.33607930952380954        0        
C2        C        0.09375        0.740741        0.33607930952380954        0        
C2        C        0.15625        0.740741        0.33607930952380954        0        
C2        C        0.21875        0.740741        0.33607930952380954        0        
C2        C        0.28125        0.740741        0.33607930952380954        0        
C2        C        0.34375        0.740741        0.33607930952380954        0        
C2        C        0.40625        0.740741        0.33607930952380954        0        
C2        C        0.46875        0.740741        0.33607930952380954        0        
C2        C        0.53125        0.740741        0.33607930952380954        0        
C2        C        0.59375        0.740741        0.33607930952380954        0        
C2        C        0.65625        0.740741        0.33607930952380954        0        
C2        C        0.71875        0.740741        0.33607930952380954        0        
C2        C        0.78125        0.740741        0.33607930952380954        0        
C2        C        0.84375        0.740741        0.33607930952380954        0        
C2        C        0.9062500000000001        0.740741        0.33607930952380954        0        
C2        C        0.9687500000000001        0.740741        0.33607930952380954        0        
C3        C        0.0        0.759259        0.33607930952380954        0        
C3        C        0.0625        0.759259        0.33607930952380954        0        
C3        C        0.125        0.759259        0.33607930952380954        0        
C3        C        0.1875        0.759259        0.33607930952380954        0        
C3        C        0.25        0.759259        0.33607930952380954        0        
C3        C        0.3125        0.759259        0.33607930952380954        0        
C3        C        0.375        0.759259        0.33607930952380954        0        
C3        C        0.4375        0.759259        0.33607930952380954        0        
C3        C        0.5        0.759259        0.33607930952380954        0        
C3        C        0.5625        0.759259        0.33607930952380954        0        
C3        C        0.625        0.759259        0.33607930952380954        0        
C3        C        0.6875        0.759259        0.33607930952380954        0        
C3        C        0.75        0.759259        0.33607930952380954        0        
C3        C        0.8125        0.759259        0.33607930952380954        0        
C3        C        0.875        0.759259        0.33607930952380954        0        
C3        C        0.9375        0.759259        0.33607930952380954        0        
C4        C        0.03125        0.703703        0.33607930952380954        0        
C4        C        0.09375        0.703703        0.33607930952380954        0        
C4        C        0.15625        0.703703        0.33607930952380954        0        
C4        C        0.21875        0.703703        0.33607930952380954        0        
C4        C        0.28125        0.703703        0.33607930952380954        0        
C4        C        0.34375        0.703703        0.33607930952380954        0        
C4        C        0.40625        0.703703        0.33607930952380954        0        
C4        C        0.46875        0.703703        0.33607930952380954        0        
C4        C        0.53125        0.703703        0.33607930952380954        0        
C4        C        0.59375        0.703703        0.33607930952380954        0        
C4        C        0.65625        0.703703        0.33607930952380954        0        
C4        C        0.71875        0.703703        0.33607930952380954        0        
C4        C        0.78125        0.703703        0.33607930952380954        0        
C4        C        0.84375        0.703703        0.33607930952380954        0        
C4        C        0.9062500000000001        0.703703        0.33607930952380954        0        
C4        C        0.9687500000000001        0.703703        0.33607930952380954        0        
C1        C        0.0        0.796297        0.33607930952380954        0        
C1        C        0.0625        0.796297        0.33607930952380954        0        
C1        C        0.125        0.796297        0.33607930952380954        0        
C1        C        0.1875        0.796297        0.33607930952380954        0        
C1        C        0.25        0.796297        0.33607930952380954        0        
C1        C        0.3125        0.796297        0.33607930952380954        0        
C1        C        0.375        0.796297        0.33607930952380954        0        
C1        C        0.4375        0.796297        0.33607930952380954        0        
C1        C        0.5        0.796297        0.33607930952380954        0        
C1        C        0.5625        0.796297        0.33607930952380954        0        
C1        C        0.625        0.796297        0.33607930952380954        0        
C1        C        0.6875        0.796297        0.33607930952380954        0        
C1        C        0.75        0.796297        0.33607930952380954        0        
C1        C        0.8125        0.796297        0.33607930952380954        0        
C1        C        0.875        0.796297        0.33607930952380954        0        
C1        C        0.9375        0.796297        0.33607930952380954        0        
C2        C        0.03125        0.851852        0.33607930952380954        0        
C2        C        0.09375        0.851852        0.33607930952380954        0        
C2        C        0.15625        0.851852        0.33607930952380954        0        
C2        C        0.21875        0.851852        0.33607930952380954        0        
C2        C        0.28125        0.851852        0.33607930952380954        0        
C2        C        0.34375        0.851852        0.33607930952380954        0        
C2        C        0.40625        0.851852        0.33607930952380954        0        
C2        C        0.46875        0.851852        0.33607930952380954        0        
C2        C        0.53125        0.851852        0.33607930952380954        0        
C2        C        0.59375        0.851852        0.33607930952380954        0        
C2        C        0.65625        0.851852        0.33607930952380954        0        
C2        C        0.71875        0.851852        0.33607930952380954        0        
C2        C        0.78125        0.851852        0.33607930952380954        0        
C2        C        0.84375        0.851852        0.33607930952380954        0        
C2        C        0.9062500000000001        0.851852        0.33607930952380954        0        
C2        C        0.9687500000000001        0.851852        0.33607930952380954        0        
C_FG        C        0.0        0.87037        0.33607930952380954        0.2        
C3        C        0.0625        0.87037        0.33607930952380954        0        
C3        C        0.125        0.87037        0.33607930952380954        0        
C3        C        0.1875        0.87037        0.33607930952380954        0        
C_FG        C        0.25        0.87037        0.33607930952380954        0.2        
C3        C        0.3125        0.87037        0.33607930952380954        0        
C3        C        0.375        0.87037        0.33607930952380954        0        
C3        C        0.4375        0.87037        0.33607930952380954        0        
C_FG        C        0.5        0.87037        0.33607930952380954        0.2        
C3        C        0.5625        0.87037        0.33607930952380954        0        
C3        C        0.625        0.87037        0.33607930952380954        0        
C3        C        0.6875        0.87037        0.33607930952380954        0        
C_FG        C        0.75        0.87037        0.33607930952380954        0.2        
C3        C        0.8125        0.87037        0.33607930952380954        0        
C3        C        0.875        0.87037        0.33607930952380954        0        
C3        C        0.9375        0.87037        0.33607930952380954        0        
C4        C        0.03125        0.814814        0.33607930952380954        0        
C4        C        0.09375        0.814814        0.33607930952380954        0        
C4        C        0.15625        0.814814        0.33607930952380954        0        
C4        C        0.21875        0.814814        0.33607930952380954        0        
C4        C        0.28125        0.814814        0.33607930952380954        0        
C4        C        0.34375        0.814814        0.33607930952380954        0        
C4        C        0.40625        0.814814        0.33607930952380954        0        
C4        C        0.46875        0.814814        0.33607930952380954        0        
C4        C        0.53125        0.814814        0.33607930952380954        0        
C4        C        0.59375        0.814814        0.33607930952380954        0        
C4        C        0.65625        0.814814        0.33607930952380954        0        
C4        C        0.71875        0.814814        0.33607930952380954        0        
C4        C        0.78125        0.814814        0.33607930952380954        0        
C4        C        0.84375        0.814814        0.33607930952380954        0        
C4        C        0.9062500000000001        0.814814        0.33607930952380954        0        
C4        C        0.9687500000000001        0.814814        0.33607930952380954        0        
C1        C        0.0        0.907408        0.33607930952380954        0        
C1        C        0.0625        0.907408        0.33607930952380954        0        
C1        C        0.125        0.907408        0.33607930952380954        0        
C1        C        0.1875        0.907408        0.33607930952380954        0        
C1        C        0.25        0.907408        0.33607930952380954        0        
C1        C        0.3125        0.907408        0.33607930952380954        0        
C1        C        0.375        0.907408        0.33607930952380954        0        
C1        C        0.4375        0.907408        0.33607930952380954        0        
C1        C        0.5        0.907408        0.33607930952380954        0        
C1        C        0.5625        0.907408        0.33607930952380954        0        
C1        C        0.625        0.907408        0.33607930952380954        0        
C1        C        0.6875        0.907408        0.33607930952380954        0        
C1        C        0.75        0.907408        0.33607930952380954        0        
C1        C        0.8125        0.907408        0.33607930952380954        0        
C1        C        0.875        0.907408        0.33607930952380954        0        
C1        C        0.9375        0.907408        0.33607930952380954        0        
C2        C        0.03125        0.962963        0.33607930952380954        0        
C2        C        0.09375        0.962963        0.33607930952380954        0        
C2        C        0.15625        0.962963        0.33607930952380954        0        
C2        C        0.21875        0.962963        0.33607930952380954        0        
C2        C        0.28125        0.962963        0.33607930952380954        0        
C2        C        0.34375        0.962963        0.33607930952380954        0        
C2        C        0.40625        0.962963        0.33607930952380954        0        
C2        C        0.46875        0.962963        0.33607930952380954        0        
C2        C        0.53125        0.962963        0.33607930952380954        0        
C2        C        0.59375        0.962963        0.33607930952380954        0        
C2        C        0.65625        0.962963        0.33607930952380954        0        
C2        C        0.71875        0.962963        0.33607930952380954        0        
C2        C        0.78125        0.962963        0.33607930952380954        0        
C2        C        0.84375        0.962963        0.33607930952380954        0        
C2        C        0.9062500000000001        0.962963        0.33607930952380954        0        
C2        C        0.9687500000000001        0.962963        0.33607930952380954        0        
C3        C        0.0        0.9814809999999999        0.33607930952380954        0        
C3        C        0.0625        0.9814809999999999        0.33607930952380954        0        
C3        C        0.125        0.9814809999999999        0.33607930952380954        0        
C3        C        0.1875        0.9814809999999999        0.33607930952380954        0        
C3        C        0.25        0.9814809999999999        0.33607930952380954        0        
C3        C        0.3125        0.9814809999999999        0.33607930952380954        0        
C3        C        0.375        0.9814809999999999        0.33607930952380954        0        
C3        C        0.4375        0.9814809999999999        0.33607930952380954        0        
C3        C        0.5        0.9814809999999999        0.33607930952380954        0        
C3        C        0.5625        0.9814809999999999        0.33607930952380954        0        
C3        C        0.625        0.9814809999999999        0.33607930952380954        0        
C3        C        0.6875        0.9814809999999999        0.33607930952380954        0        
C3        C        0.75        0.9814809999999999        0.33607930952380954        0        
C3        C        0.8125        0.9814809999999999        0.33607930952380954        0        
C3        C        0.875        0.9814809999999999        0.33607930952380954        0        
C3        C        0.9375        0.9814809999999999        0.33607930952380954        0        
C4        C        0.03125        0.925925        0.33607930952380954        0        
C4        C        0.09375        0.925925        0.33607930952380954        0        
C4        C        0.15625        0.925925        0.33607930952380954        0        
C4        C        0.21875        0.925925        0.33607930952380954        0        
C4        C        0.28125        0.925925        0.33607930952380954        0        
C4        C        0.34375        0.925925        0.33607930952380954        0        
C4        C        0.40625        0.925925        0.33607930952380954        0        
C4        C        0.46875        0.925925        0.33607930952380954        0        
C4        C        0.53125        0.925925        0.33607930952380954        0        
C4        C        0.59375        0.925925        0.33607930952380954        0        
C4        C        0.65625        0.925925        0.33607930952380954        0        
C4        C        0.71875        0.925925        0.33607930952380954        0        
C4        C        0.78125        0.925925        0.33607930952380954        0        
C4        C        0.84375        0.925925        0.33607930952380954        0        
C4        C        0.9062500000000001        0.925925        0.33607930952380954        0        
C4        C        0.9687500000000001        0.925925        0.33607930952380954        0        
O_OH        O        0.0        0.018519        0.013341230158730157        -0.64        
O_OH        O        0.0        0.314815        0.013341230158730157        -0.64        
O_OH        O        0.0        0.574075        0.013341230158730157        -0.64        
O_OH        O        0.25        0.018519        0.013341230158730157        -0.64        
O_OH        O        0.25        0.314815        0.013341230158730157        -0.64        
O_OH        O        0.25        0.574075        0.013341230158730157        -0.64        
O_OH        O        0.5        0.018519        0.013341230158730157        -0.64        
O_OH        O        0.5        0.314815        0.013341230158730157        -0.64        
O_OH        O        0.5        0.574075        0.013341230158730157        -0.64        
O_OH        O        0.75        0.018519        0.013341230158730157        -0.64        
O_OH        O        0.75        0.314815        0.013341230158730157        -0.64        
O_OH        O        0.75        0.574075        0.013341230158730157        -0.64        
O_OH        O        0.0        0.87037        0.013341230158730157        -0.64        
O_OH        O        0.25        0.87037        0.013341230158730157        -0.64        
O_OH        O        0.5        0.87037        0.013341230158730157        -0.64        
O_OH        O        0.75        0.87037        0.013341230158730157        -0.64        
O_OH        O        0.0        0.018519        0.39294440476190473        -0.64        
O_OH        O        0.0        0.314815        0.39294440476190473        -0.64        
O_OH        O        0.0        0.574075        0.39294440476190473        -0.64        
O_OH        O        0.25        0.018519        0.39294440476190473        -0.64        
O_OH        O        0.25        0.314815        0.39294440476190473        -0.64        
O_OH        O        0.25        0.574075        0.39294440476190473        -0.64        
O_OH        O        0.5        0.018519        0.39294440476190473        -0.64        
O_OH        O        0.5        0.314815        0.39294440476190473        -0.64        
O_OH        O        0.5        0.574075        0.39294440476190473        -0.64        
O_OH        O        0.75        0.018519        0.39294440476190473        -0.64        
O_OH        O        0.75        0.314815        0.39294440476190473        -0.64        
O_OH        O        0.75        0.574075        0.39294440476190473        -0.64        
O_OH        O        0.0        0.87037        0.39294440476190473        -0.64        
O_OH        O        0.25        0.87037        0.39294440476190473        -0.64        
O_OH        O        0.5        0.87037        0.39294440476190473        -0.64        
O_OH        O        0.75        0.87037        0.39294440476190473        -0.64        
H_OH        H        -0.022838242220196394        0.019116742072234065        0.0        0.44        
H_OH        H        -0.020702812512823507        0.32473211639969735        0.0        0.44        
H_OH        H        -0.009147293709209015        0.5955663951259017        0.0        0.44        
H_OH        H        0.2618881507052493        0.03854689029377201        0.0        0.44        
H_OH        H        0.23501012659712484        0.33251396439552966        0.0        0.44        
H_OH        H        0.25560309247193064        0.5968121290127096        0.0        0.44        
H_OH        H        0.4976898911806885        0.041852238553952        0.0        0.44        
H_OH        H        0.49014024261181544        0.3359717509455141        0.0        0.44        
H_OH        H        0.5065929692884753        0.5965305902115791        0.0        0.44        
H_OH        H        0.7709800504809091        0.027801783485863877        0.0        0.44        
H_OH        H        0.7295377078348698        0.32524496006144865        0.0        0.44        
H_OH        H        0.7706308807031331        0.5841488626272126        0.0        0.44        
H_OH        H        -0.011073059752944725        0.890884407777378        0.0        0.44        
H_OH        H        0.24349630359188895        0.8928530101648078        0.0        0.44        
H_OH        H        0.48060399330897363        0.8827625718015747        0.0        0.44        
H_OH        H        0.7434630547848283        0.8928428454611339        0.0        0.44        
H_OH        H        -0.006100267366944269        0.041120873882550445        0.40628563492063496        0.44        
H_OH        H        0.009035127637177995        0.33635634336789283        0.40628563492063496        0.44        
H_OH        H        0.021745440056666263        0.5812656387114689        0.40628563492063496        0.44        
H_OH        H        0.22716447263147743        0.01921755460333272        0.40628563492063496        0.44        
H_OH        H        0.2418111357059963        0.3367100082720282        0.40628563492063496        0.44        
H_OH        H        0.22869711196474138        0.5825475184269056        0.40628563492063496        0.44        
H_OH        H        0.49252851280771776        0.040682742385481176        0.40628563492063496        0.44        
H_OH        H        0.5167110241827012        0.3308071716673176        0.40628563492063496        0.44        
H_OH        H        0.5220846555627378        0.5800779845403389        0.40628563492063496        0.44        
H_OH        H        0.7710583699576341        0.027612961069732097        0.40628563492063496        0.44        
H_OH        H        0.7275280491482935        0.31903979067220956        0.40628563492063496        0.44        
H_OH        H        0.7600455630092013        0.5951394292835821        0.40628563492063496        0.44        
H_OH        H        -0.02232080243252078        0.8753684237406526        0.40628563492063496        0.44        
H_OH        H        0.23490105652547957        0.8879709832278004        0.40628563492063496        0.44        
H_OH        H        0.5076729352693247        0.8924610881189476        0.40628563492063496        0.44        
H_OH        H        0.7367750924927499        0.8894942353631405        0.40628563492063496        0.44        
