data_graphite_ortho

_audit_creation_method RASPA-1.0
_audit_creation_date 2012-2-3
_audit_author_name 'David Dubbeldam'

_cell_length_a    31.98    
_cell_length_b    38.34    
_cell_length_c    28.9    
_cell_angle_alpha 90
_cell_angle_beta  90
_cell_angle_gamma 90
_cell_volume      35434.67      

_symmetry_cell_setting          triclinic
_symmetry_space_group_name_Hall 'P 1'
_symmetry_space_group_name_H-M  'P 1'
_symmetry_Int_Tables_number     1

_symmetry_equiv_pos_as_xyz 'x,y,z'

loop_
_atom_site_label
_atom_site_type_symbol
_atom_site_fract_x
_atom_site_fract_y
_atom_site_fract_z
_atom_site_charge
C1        C        0.0        0.018519        0.0        0        
C2        C        0.038462        0.074075        0.0        0        
C3        C        0.0        0.092592        0.0        0        
C4        C        0.038462        0.037037        0.0        0        
C1        C        0.0        0.12963        0.0        0        
C2        C        0.038462        0.185185        0.0        0        
C3        C        0.0        0.203703        0.0        0        
C4        C        0.038462        0.148148        0.0        0        
C1        C        0.0        0.24074099999999998        0.0        0        
C2        C        0.038462        0.296297        0.0        0        
C3        C        0.0        0.314815        0.0        0        
C4        C        0.038462        0.259259        0.0        0        
C1        C        0.0        0.351852        0.0        0        
C2        C        0.038462        0.407408        0.0        0        
C3        C        0.0        0.42592500000000005        0.0        0        
C4        C        0.038462        0.37037        0.0        0        
C1        C        0.0        0.46296300000000007        0.0        0        
C2        C        0.038462        0.518519        0.0        0        
C3        C        0.0        0.537037        0.0        0        
C4        C        0.038462        0.481481        0.0        0        
C1        C        0.0        0.574075        0.0        0        
C2        C        0.038462        0.62963        0.0        0        
C3        C        0.0        0.648148        0.0        0        
C4        C        0.038462        0.592592        0.0        0        
C1        C        0.076923        0.018519        0.0        0        
C2        C        0.115385        0.074075        0.0        0        
C3        C        0.076923        0.092592        0.0        0        
C4        C        0.115385        0.037037        0.0        0        
C1        C        0.076923        0.12963        0.0        0        
C2        C        0.115385        0.185185        0.0        0        
C3        C        0.076923        0.203703        0.0        0        
C4        C        0.115385        0.148148        0.0        0        
C1        C        0.076923        0.24074099999999998        0.0        0        
C2        C        0.115385        0.296297        0.0        0        
C3        C        0.076923        0.314815        0.0        0        
C4        C        0.115385        0.259259        0.0        0        
C1        C        0.076923        0.351852        0.0        0        
C2        C        0.115385        0.407408        0.0        0        
C3        C        0.076923        0.42592500000000005        0.0        0        
C4        C        0.115385        0.37037        0.0        0        
C1        C        0.076923        0.46296300000000007        0.0        0        
C2        C        0.115385        0.518519        0.0        0        
C3        C        0.076923        0.537037        0.0        0        
C4        C        0.115385        0.481481        0.0        0        
C1        C        0.076923        0.574075        0.0        0        
C2        C        0.115385        0.62963        0.0        0        
C3        C        0.076923        0.648148        0.0        0        
C4        C        0.115385        0.592592        0.0        0        
C1        C        0.153846        0.018519        0.0        0        
C2        C        0.192308        0.074075        0.0        0        
C3        C        0.153846        0.092592        0.0        0        
C4        C        0.192308        0.037037        0.0        0        
C1        C        0.153846        0.12963        0.0        0        
C2        C        0.192308        0.185185        0.0        0        
C3        C        0.153846        0.203703        0.0        0        
C4        C        0.192308        0.148148        0.0        0        
C1        C        0.153846        0.24074099999999998        0.0        0        
C2        C        0.192308        0.296297        0.0        0        
C3        C        0.153846        0.314815        0.0        0        
C4        C        0.192308        0.259259        0.0        0        
C1        C        0.153846        0.351852        0.0        0        
C2        C        0.192308        0.407408        0.0        0        
C3        C        0.153846        0.42592500000000005        0.0        0        
C4        C        0.192308        0.37037        0.0        0        
C1        C        0.153846        0.46296300000000007        0.0        0        
C2        C        0.192308        0.518519        0.0        0        
C3        C        0.153846        0.537037        0.0        0        
C4        C        0.192308        0.481481        0.0        0        
C1        C        0.153846        0.574075        0.0        0        
C2        C        0.192308        0.62963        0.0        0        
C3        C        0.153846        0.648148        0.0        0        
C4        C        0.192308        0.592592        0.0        0        
C1        C        0.230769        0.018519        0.0        0        
C2        C        0.269231        0.074075        0.0        0        
C3        C        0.230769        0.092592        0.0        0        
C4        C        0.269231        0.037037        0.0        0        
C1        C        0.230769        0.12963        0.0        0        
C2        C        0.269231        0.185185        0.0        0        
C3        C        0.230769        0.203703        0.0        0        
C4        C        0.269231        0.148148        0.0        0        
C1        C        0.230769        0.24074099999999998        0.0        0        
C2        C        0.269231        0.296297        0.0        0        
C3        C        0.230769        0.314815        0.0        0        
C4        C        0.269231        0.259259        0.0        0        
C1        C        0.230769        0.351852        0.0        0        
C2        C        0.269231        0.407408        0.0        0        
C3        C        0.230769        0.42592500000000005        0.0        0        
C4        C        0.269231        0.37037        0.0        0        
C1        C        0.230769        0.46296300000000007        0.0        0        
C2        C        0.269231        0.518519        0.0        0        
C3        C        0.230769        0.537037        0.0        0        
C4        C        0.269231        0.481481        0.0        0        
C1        C        0.230769        0.574075        0.0        0        
C2        C        0.269231        0.62963        0.0        0        
C3        C        0.230769        0.648148        0.0        0        
C4        C        0.269231        0.592592        0.0        0        
C1        C        0.307692        0.018519        0.0        0        
C2        C        0.346154        0.074075        0.0        0        
C3        C        0.307692        0.092592        0.0        0        
C4        C        0.346154        0.037037        0.0        0        
C1        C        0.307692        0.12963        0.0        0        
C2        C        0.346154        0.185185        0.0        0        
C3        C        0.307692        0.203703        0.0        0        
C4        C        0.346154        0.148148        0.0        0        
C1        C        0.307692        0.24074099999999998        0.0        0        
C2        C        0.346154        0.296297        0.0        0        
C3        C        0.307692        0.314815        0.0        0        
C4        C        0.346154        0.259259        0.0        0        
C1        C        0.307692        0.351852        0.0        0        
C2        C        0.346154        0.407408        0.0        0        
C3        C        0.307692        0.42592500000000005        0.0        0        
C4        C        0.346154        0.37037        0.0        0        
C1        C        0.307692        0.46296300000000007        0.0        0        
C2        C        0.346154        0.518519        0.0        0        
C3        C        0.307692        0.537037        0.0        0        
C4        C        0.346154        0.481481        0.0        0        
C1        C        0.307692        0.574075        0.0        0        
C2        C        0.346154        0.62963        0.0        0        
C3        C        0.307692        0.648148        0.0        0        
C4        C        0.346154        0.592592        0.0        0        
C1        C        0.384615        0.018519        0.0        0        
C2        C        0.423077        0.074075        0.0        0        
C3        C        0.384615        0.092592        0.0        0        
C4        C        0.423077        0.037037        0.0        0        
C1        C        0.384615        0.12963        0.0        0        
C2        C        0.423077        0.185185        0.0        0        
C3        C        0.384615        0.203703        0.0        0        
C4        C        0.423077        0.148148        0.0        0        
C1        C        0.384615        0.24074099999999998        0.0        0        
C2        C        0.423077        0.296297        0.0        0        
C3        C        0.384615        0.314815        0.0        0        
C4        C        0.423077        0.259259        0.0        0        
C1        C        0.384615        0.351852        0.0        0        
C2        C        0.423077        0.407408        0.0        0        
C3        C        0.384615        0.42592500000000005        0.0        0        
C4        C        0.423077        0.37037        0.0        0        
C1        C        0.384615        0.46296300000000007        0.0        0        
C2        C        0.423077        0.518519        0.0        0        
C3        C        0.384615        0.537037        0.0        0        
C4        C        0.423077        0.481481        0.0        0        
C1        C        0.384615        0.574075        0.0        0        
C2        C        0.423077        0.62963        0.0        0        
C3        C        0.384615        0.648148        0.0        0        
C4        C        0.423077        0.592592        0.0        0        
C1        C        0.461538        0.018519        0.0        0        
C2        C        0.5        0.074075        0.0        0        
C3        C        0.461538        0.092592        0.0        0        
C4        C        0.5        0.037037        0.0        0        
C1        C        0.461538        0.12963        0.0        0        
C2        C        0.5        0.185185        0.0        0        
C3        C        0.461538        0.203703        0.0        0        
C4        C        0.5        0.148148        0.0        0        
C1        C        0.461538        0.24074099999999998        0.0        0        
C2        C        0.5        0.296297        0.0        0        
C3        C        0.461538        0.314815        0.0        0        
C4        C        0.5        0.259259        0.0        0        
C1        C        0.461538        0.351852        0.0        0        
C2        C        0.5        0.407408        0.0        0        
C3        C        0.461538        0.42592500000000005        0.0        0        
C4        C        0.5        0.37037        0.0        0        
C1        C        0.461538        0.46296300000000007        0.0        0        
C2        C        0.5        0.518519        0.0        0        
C3        C        0.461538        0.537037        0.0        0        
C4        C        0.5        0.481481        0.0        0        
C1        C        0.461538        0.574075        0.0        0        
C2        C        0.5        0.62963        0.0        0        
C3        C        0.461538        0.648148        0.0        0        
C4        C        0.5        0.592592        0.0        0        
C1        C        0.538462        0.018519        0.0        0        
C2        C        0.576923        0.074075        0.0        0        
C3        C        0.538462        0.092592        0.0        0        
C4        C        0.576923        0.037037        0.0        0        
C1        C        0.538462        0.12963        0.0        0        
C2        C        0.576923        0.185185        0.0        0        
C3        C        0.538462        0.203703        0.0        0        
C4        C        0.576923        0.148148        0.0        0        
C1        C        0.538462        0.24074099999999998        0.0        0        
C2        C        0.576923        0.296297        0.0        0        
C3        C        0.538462        0.314815        0.0        0        
C4        C        0.576923        0.259259        0.0        0        
C1        C        0.538462        0.351852        0.0        0        
C2        C        0.576923        0.407408        0.0        0        
C3        C        0.538462        0.42592500000000005        0.0        0        
C4        C        0.576923        0.37037        0.0        0        
C1        C        0.538462        0.46296300000000007        0.0        0        
C2        C        0.576923        0.518519        0.0        0        
C3        C        0.538462        0.537037        0.0        0        
C4        C        0.576923        0.481481        0.0        0        
C1        C        0.538462        0.574075        0.0        0        
C2        C        0.576923        0.62963        0.0        0        
C3        C        0.538462        0.648148        0.0        0        
C4        C        0.576923        0.592592        0.0        0        
C1        C        0.615385        0.018519        0.0        0        
C2        C        0.653846        0.074075        0.0        0        
C3        C        0.615385        0.092592        0.0        0        
C4        C        0.653846        0.037037        0.0        0        
C1        C        0.615385        0.12963        0.0        0        
C2        C        0.653846        0.185185        0.0        0        
C3        C        0.615385        0.203703        0.0        0        
C4        C        0.653846        0.148148        0.0        0        
C1        C        0.615385        0.24074099999999998        0.0        0        
C2        C        0.653846        0.296297        0.0        0        
C3        C        0.615385        0.314815        0.0        0        
C4        C        0.653846        0.259259        0.0        0        
C1        C        0.615385        0.351852        0.0        0        
C2        C        0.653846        0.407408        0.0        0        
C3        C        0.615385        0.42592500000000005        0.0        0        
C4        C        0.653846        0.37037        0.0        0        
C1        C        0.615385        0.46296300000000007        0.0        0        
C2        C        0.653846        0.518519        0.0        0        
C3        C        0.615385        0.537037        0.0        0        
C4        C        0.653846        0.481481        0.0        0        
C1        C        0.615385        0.574075        0.0        0        
C2        C        0.653846        0.62963        0.0        0        
C3        C        0.615385        0.648148        0.0        0        
C4        C        0.653846        0.592592        0.0        0        
C1        C        0.692308        0.018519        0.0        0        
C2        C        0.730769        0.074075        0.0        0        
C3        C        0.692308        0.092592        0.0        0        
C4        C        0.730769        0.037037        0.0        0        
C1        C        0.692308        0.12963        0.0        0        
C2        C        0.730769        0.185185        0.0        0        
C3        C        0.692308        0.203703        0.0        0        
C4        C        0.730769        0.148148        0.0        0        
C1        C        0.692308        0.24074099999999998        0.0        0        
C2        C        0.730769        0.296297        0.0        0        
C3        C        0.692308        0.314815        0.0        0        
C4        C        0.730769        0.259259        0.0        0        
C1        C        0.692308        0.351852        0.0        0        
C2        C        0.730769        0.407408        0.0        0        
C3        C        0.692308        0.42592500000000005        0.0        0        
C4        C        0.730769        0.37037        0.0        0        
C1        C        0.692308        0.46296300000000007        0.0        0        
C2        C        0.730769        0.518519        0.0        0        
C3        C        0.692308        0.537037        0.0        0        
C4        C        0.730769        0.481481        0.0        0        
C1        C        0.692308        0.574075        0.0        0        
C2        C        0.730769        0.62963        0.0        0        
C3        C        0.692308        0.648148        0.0        0        
C4        C        0.730769        0.592592        0.0        0        
C1        C        0.769231        0.018519        0.0        0        
C2        C        0.807692        0.074075        0.0        0        
C3        C        0.769231        0.092592        0.0        0        
C4        C        0.807692        0.037037        0.0        0        
C1        C        0.769231        0.12963        0.0        0        
C2        C        0.807692        0.185185        0.0        0        
C3        C        0.769231        0.203703        0.0        0        
C4        C        0.807692        0.148148        0.0        0        
C1        C        0.769231        0.24074099999999998        0.0        0        
C2        C        0.807692        0.296297        0.0        0        
C3        C        0.769231        0.314815        0.0        0        
C4        C        0.807692        0.259259        0.0        0        
C1        C        0.769231        0.351852        0.0        0        
C2        C        0.807692        0.407408        0.0        0        
C3        C        0.769231        0.42592500000000005        0.0        0        
C4        C        0.807692        0.37037        0.0        0        
C1        C        0.769231        0.46296300000000007        0.0        0        
C2        C        0.807692        0.518519        0.0        0        
C3        C        0.769231        0.537037        0.0        0        
C4        C        0.807692        0.481481        0.0        0        
C1        C        0.769231        0.574075        0.0        0        
C2        C        0.807692        0.62963        0.0        0        
C3        C        0.769231        0.648148        0.0        0        
C4        C        0.807692        0.592592        0.0        0        
C1        C        0.846154        0.018519        0.0        0        
C2        C        0.884615        0.074075        0.0        0        
C3        C        0.846154        0.092592        0.0        0        
C4        C        0.884615        0.037037        0.0        0        
C1        C        0.846154        0.12963        0.0        0        
C2        C        0.884615        0.185185        0.0        0        
C3        C        0.846154        0.203703        0.0        0        
C4        C        0.884615        0.148148        0.0        0        
C1        C        0.846154        0.24074099999999998        0.0        0        
C2        C        0.884615        0.296297        0.0        0        
C3        C        0.846154        0.314815        0.0        0        
C4        C        0.884615        0.259259        0.0        0        
C1        C        0.846154        0.351852        0.0        0        
C2        C        0.884615        0.407408        0.0        0        
C3        C        0.846154        0.42592500000000005        0.0        0        
C4        C        0.884615        0.37037        0.0        0        
C1        C        0.846154        0.46296300000000007        0.0        0        
C2        C        0.884615        0.518519        0.0        0        
C3        C        0.846154        0.537037        0.0        0        
C4        C        0.884615        0.481481        0.0        0        
C1        C        0.846154        0.574075        0.0        0        
C2        C        0.884615        0.62963        0.0        0        
C3        C        0.846154        0.648148        0.0        0        
C4        C        0.884615        0.592592        0.0        0        
C1        C        0.923077        0.018519        0.0        0        
C2        C        0.961538        0.074075        0.0        0        
C3        C        0.923077        0.092592        0.0        0        
C4        C        0.961538        0.037037        0.0        0        
C1        C        0.923077        0.12963        0.0        0        
C2        C        0.961538        0.185185        0.0        0        
C3        C        0.923077        0.203703        0.0        0        
C4        C        0.961538        0.148148        0.0        0        
C1        C        0.923077        0.24074099999999998        0.0        0        
C2        C        0.961538        0.296297        0.0        0        
C3        C        0.923077        0.314815        0.0        0        
C4        C        0.961538        0.259259        0.0        0        
C1        C        0.923077        0.351852        0.0        0        
C2        C        0.961538        0.407408        0.0        0        
C3        C        0.923077        0.42592500000000005        0.0        0        
C4        C        0.961538        0.37037        0.0        0        
C1        C        0.923077        0.46296300000000007        0.0        0        
C2        C        0.961538        0.518519        0.0        0        
C3        C        0.923077        0.537037        0.0        0        
C4        C        0.961538        0.481481        0.0        0        
C1        C        0.923077        0.574075        0.0        0        
C2        C        0.961538        0.62963        0.0        0        
C3        C        0.923077        0.648148        0.0        0        
C4        C        0.961538        0.592592        0.0        0        
C1        C        1.0        0.018519        0.0        0        
C2        C        1.038462        0.074075        0.0        0        
C3        C        1.0        0.092592        0.0        0        
C4        C        1.038462        0.037037        0.0        0        
C1        C        1.0        0.12963        0.0        0        
C2        C        1.038462        0.185185        0.0        0        
C3        C        1.0        0.203703        0.0        0        
C4        C        1.038462        0.148148        0.0        0        
C1        C        1.0        0.24074099999999998        0.0        0        
C2        C        1.038462        0.296297        0.0        0        
C3        C        1.0        0.314815        0.0        0        
C4        C        1.038462        0.259259        0.0        0        
C1        C        1.0        0.351852        0.0        0        
C2        C        1.038462        0.407408        0.0        0        
C3        C        1.0        0.42592500000000005        0.0        0        
C4        C        1.038462        0.37037        0.0        0        
C1        C        1.0        0.46296300000000007        0.0        0        
C2        C        1.038462        0.518519        0.0        0        
C3        C        1.0        0.537037        0.0        0        
C4        C        1.038462        0.481481        0.0        0        
C1        C        1.0        0.574075        0.0        0        
C2        C        1.038462        0.62963        0.0        0        
C3        C        1.0        0.648148        0.0        0        
C4        C        1.038462        0.592592        0.0        0        
C1        C        0.0        0.685186        0.0        0        
C1        C        0.076923        0.685186        0.0        0        
C1        C        0.153846        0.685186        0.0        0        
C1        C        0.230769        0.685186        0.0        0        
C1        C        0.307692        0.685186        0.0        0        
C1        C        0.384615        0.685186        0.0        0        
C1        C        0.461538        0.685186        0.0        0        
C1        C        0.538462        0.685186        0.0        0        
C1        C        0.615385        0.685186        0.0        0        
C1        C        0.692308        0.685186        0.0        0        
C1        C        0.769231        0.685186        0.0        0        
C1        C        0.846154        0.685186        0.0        0        
C1        C        0.923077        0.685186        0.0        0        
C1        C        1.0        0.685186        0.0        0        
C2        C        0.038462        0.740741        0.0        0        
C2        C        0.115385        0.740741        0.0        0        
C2        C        0.192308        0.740741        0.0        0        
C2        C        0.269231        0.740741        0.0        0        
C2        C        0.346154        0.740741        0.0        0        
C2        C        0.423077        0.740741        0.0        0        
C2        C        0.5        0.740741        0.0        0        
C2        C        0.576923        0.740741        0.0        0        
C2        C        0.653846        0.740741        0.0        0        
C2        C        0.730769        0.740741        0.0        0        
C2        C        0.807692        0.740741        0.0        0        
C2        C        0.884615        0.740741        0.0        0        
C2        C        0.961538        0.740741        0.0        0        
C2        C        1.038462        0.740741        0.0        0        
C3        C        0.0        0.759259        0.0        0        
C3        C        0.076923        0.759259        0.0        0        
C3        C        0.153846        0.759259        0.0        0        
C3        C        0.230769        0.759259        0.0        0        
C3        C        0.307692        0.759259        0.0        0        
C3        C        0.384615        0.759259        0.0        0        
C3        C        0.461538        0.759259        0.0        0        
C3        C        0.538462        0.759259        0.0        0        
C3        C        0.615385        0.759259        0.0        0        
C3        C        0.692308        0.759259        0.0        0        
C3        C        0.769231        0.759259        0.0        0        
C3        C        0.846154        0.759259        0.0        0        
C3        C        0.923077        0.759259        0.0        0        
C3        C        1.0        0.759259        0.0        0        
C4        C        0.038462        0.703703        0.0        0        
C4        C        0.115385        0.703703        0.0        0        
C4        C        0.192308        0.703703        0.0        0        
C4        C        0.269231        0.703703        0.0        0        
C4        C        0.346154        0.703703        0.0        0        
C4        C        0.423077        0.703703        0.0        0        
C4        C        0.5        0.703703        0.0        0        
C4        C        0.576923        0.703703        0.0        0        
C4        C        0.653846        0.703703        0.0        0        
C4        C        0.730769        0.703703        0.0        0        
C4        C        0.807692        0.703703        0.0        0        
C4        C        0.884615        0.703703        0.0        0        
C4        C        0.961538        0.703703        0.0        0        
C4        C        1.038462        0.703703        0.0        0        
C1        C        0.0        0.796297        0.0        0        
C1        C        0.076923        0.796297        0.0        0        
C1        C        0.153846        0.796297        0.0        0        
C1        C        0.230769        0.796297        0.0        0        
C1        C        0.307692        0.796297        0.0        0        
C1        C        0.384615        0.796297        0.0        0        
C1        C        0.461538        0.796297        0.0        0        
C1        C        0.538462        0.796297        0.0        0        
C1        C        0.615385        0.796297        0.0        0        
C1        C        0.692308        0.796297        0.0        0        
C1        C        0.769231        0.796297        0.0        0        
C1        C        0.846154        0.796297        0.0        0        
C1        C        0.923077        0.796297        0.0        0        
C1        C        1.0        0.796297        0.0        0        
C2        C        0.038462        0.851852        0.0        0        
C2        C        0.115385        0.851852        0.0        0        
C2        C        0.192308        0.851852        0.0        0        
C2        C        0.269231        0.851852        0.0        0        
C2        C        0.346154        0.851852        0.0        0        
C2        C        0.423077        0.851852        0.0        0        
C2        C        0.5        0.851852        0.0        0        
C2        C        0.576923        0.851852        0.0        0        
C2        C        0.653846        0.851852        0.0        0        
C2        C        0.730769        0.851852        0.0        0        
C2        C        0.807692        0.851852        0.0        0        
C2        C        0.884615        0.851852        0.0        0        
C2        C        0.961538        0.851852        0.0        0        
C2        C        1.038462        0.851852        0.0        0        
C3        C        0.0        0.87037        0.0        0        
C3        C        0.076923        0.87037        0.0        0        
C3        C        0.153846        0.87037        0.0        0        
C3        C        0.230769        0.87037        0.0        0        
C3        C        0.307692        0.87037        0.0        0        
C3        C        0.384615        0.87037        0.0        0        
C3        C        0.461538        0.87037        0.0        0        
C3        C        0.538462        0.87037        0.0        0        
C3        C        0.615385        0.87037        0.0        0        
C3        C        0.692308        0.87037        0.0        0        
C3        C        0.769231        0.87037        0.0        0        
C3        C        0.846154        0.87037        0.0        0        
C3        C        0.923077        0.87037        0.0        0        
C3        C        1.0        0.87037        0.0        0        
C4        C        0.038462        0.814814        0.0        0        
C4        C        0.115385        0.814814        0.0        0        
C4        C        0.192308        0.814814        0.0        0        
C4        C        0.269231        0.814814        0.0        0        
C4        C        0.346154        0.814814        0.0        0        
C4        C        0.423077        0.814814        0.0        0        
C4        C        0.5        0.814814        0.0        0        
C4        C        0.576923        0.814814        0.0        0        
C4        C        0.653846        0.814814        0.0        0        
C4        C        0.730769        0.814814        0.0        0        
C4        C        0.807692        0.814814        0.0        0        
C4        C        0.884615        0.814814        0.0        0        
C4        C        0.961538        0.814814        0.0        0        
C4        C        1.038462        0.814814        0.0        0        
C1        C        0.0        0.907408        0.0        0        
C1        C        0.076923        0.907408        0.0        0        
C1        C        0.153846        0.907408        0.0        0        
C1        C        0.230769        0.907408        0.0        0        
C1        C        0.307692        0.907408        0.0        0        
C1        C        0.384615        0.907408        0.0        0        
C1        C        0.461538        0.907408        0.0        0        
C1        C        0.538462        0.907408        0.0        0        
C1        C        0.615385        0.907408        0.0        0        
C1        C        0.692308        0.907408        0.0        0        
C1        C        0.769231        0.907408        0.0        0        
C1        C        0.846154        0.907408        0.0        0        
C1        C        0.923077        0.907408        0.0        0        
C1        C        1.0        0.907408        0.0        0        
C2        C        0.038462        0.962963        0.0        0        
C2        C        0.115385        0.962963        0.0        0        
C2        C        0.192308        0.962963        0.0        0        
C2        C        0.269231        0.962963        0.0        0        
C2        C        0.346154        0.962963        0.0        0        
C2        C        0.423077        0.962963        0.0        0        
C2        C        0.5        0.962963        0.0        0        
C2        C        0.576923        0.962963        0.0        0        
C2        C        0.653846        0.962963        0.0        0        
C2        C        0.730769        0.962963        0.0        0        
C2        C        0.807692        0.962963        0.0        0        
C2        C        0.884615        0.962963        0.0        0        
C2        C        0.961538        0.962963        0.0        0        
C2        C        1.038462        0.962963        0.0        0        
C3        C        0.0        0.9814809999999999        0.0        0        
C3        C        0.076923        0.9814809999999999        0.0        0        
C3        C        0.153846        0.9814809999999999        0.0        0        
C3        C        0.230769        0.9814809999999999        0.0        0        
C3        C        0.307692        0.9814809999999999        0.0        0        
C3        C        0.384615        0.9814809999999999        0.0        0        
C3        C        0.461538        0.9814809999999999        0.0        0        
C3        C        0.538462        0.9814809999999999        0.0        0        
C3        C        0.615385        0.9814809999999999        0.0        0        
C3        C        0.692308        0.9814809999999999        0.0        0        
C3        C        0.769231        0.9814809999999999        0.0        0        
C3        C        0.846154        0.9814809999999999        0.0        0        
C3        C        0.923077        0.9814809999999999        0.0        0        
C3        C        1.0        0.9814809999999999        0.0        0        
C4        C        0.038462        0.925925        0.0        0        
C4        C        0.115385        0.925925        0.0        0        
C4        C        0.192308        0.925925        0.0        0        
C4        C        0.269231        0.925925        0.0        0        
C4        C        0.346154        0.925925        0.0        0        
C4        C        0.423077        0.925925        0.0        0        
C4        C        0.5        0.925925        0.0        0        
C4        C        0.576923        0.925925        0.0        0        
C4        C        0.653846        0.925925        0.0        0        
C4        C        0.730769        0.925925        0.0        0        
C4        C        0.807692        0.925925        0.0        0        
C4        C        0.884615        0.925925        0.0        0        
C4        C        0.961538        0.925925        0.0        0        
C4        C        1.038462        0.925925        0.0        0        
C1        C        0.0        0.018519        0.115917        0        
C2        C        0.038462        0.074075        0.115917        0        
C3        C        0.0        0.092592        0.115917        0        
C4        C        0.038462        0.037037        0.115917        0        
C1        C        0.0        0.12963        0.115917        0        
C2        C        0.038462        0.185185        0.115917        0        
C3        C        0.0        0.203703        0.115917        0        
C4        C        0.038462        0.148148        0.115917        0        
C1        C        0.0        0.24074099999999998        0.115917        0        
C2        C        0.038462        0.296297        0.115917        0        
C3        C        0.0        0.314815        0.115917        0        
C4        C        0.038462        0.259259        0.115917        0        
C1        C        0.0        0.351852        0.115917        0        
C2        C        0.038462        0.407408        0.115917        0        
C3        C        0.0        0.42592500000000005        0.115917        0        
C4        C        0.038462        0.37037        0.115917        0        
C1        C        0.0        0.46296300000000007        0.115917        0        
C2        C        0.038462        0.518519        0.115917        0        
C3        C        0.0        0.537037        0.115917        0        
C4        C        0.038462        0.481481        0.115917        0        
C1        C        0.0        0.574075        0.115917        0        
C2        C        0.038462        0.62963        0.115917        0        
C3        C        0.0        0.648148        0.115917        0        
C4        C        0.038462        0.592592        0.115917        0        
C1        C        0.076923        0.018519        0.115917        0        
C2        C        0.115385        0.074075        0.115917        0        
C3        C        0.076923        0.092592        0.115917        0        
C4        C        0.115385        0.037037        0.115917        0        
C1        C        0.076923        0.12963        0.115917        0        
C2        C        0.115385        0.185185        0.115917        0        
C3        C        0.076923        0.203703        0.115917        0        
C4        C        0.115385        0.148148        0.115917        0        
C1        C        0.076923        0.24074099999999998        0.115917        0        
C2        C        0.115385        0.296297        0.115917        0        
C3        C        0.076923        0.314815        0.115917        0        
C4        C        0.115385        0.259259        0.115917        0        
C1        C        0.076923        0.351852        0.115917        0        
C2        C        0.115385        0.407408        0.115917        0        
C3        C        0.076923        0.42592500000000005        0.115917        0        
C4        C        0.115385        0.37037        0.115917        0        
C1        C        0.076923        0.46296300000000007        0.115917        0        
C2        C        0.115385        0.518519        0.115917        0        
C3        C        0.076923        0.537037        0.115917        0        
C4        C        0.115385        0.481481        0.115917        0        
C1        C        0.076923        0.574075        0.115917        0        
C2        C        0.115385        0.62963        0.115917        0        
C3        C        0.076923        0.648148        0.115917        0        
C4        C        0.115385        0.592592        0.115917        0        
C1        C        0.153846        0.018519        0.115917        0        
C2        C        0.192308        0.074075        0.115917        0        
C3        C        0.153846        0.092592        0.115917        0        
C4        C        0.192308        0.037037        0.115917        0        
C1        C        0.153846        0.12963        0.115917        0        
C2        C        0.192308        0.185185        0.115917        0        
C3        C        0.153846        0.203703        0.115917        0        
C4        C        0.192308        0.148148        0.115917        0        
C1        C        0.153846        0.24074099999999998        0.115917        0        
C2        C        0.192308        0.296297        0.115917        0        
C3        C        0.153846        0.314815        0.115917        0        
C4        C        0.192308        0.259259        0.115917        0        
C1        C        0.153846        0.351852        0.115917        0        
C2        C        0.192308        0.407408        0.115917        0        
C3        C        0.153846        0.42592500000000005        0.115917        0        
C4        C        0.192308        0.37037        0.115917        0        
C1        C        0.153846        0.46296300000000007        0.115917        0        
C2        C        0.192308        0.518519        0.115917        0        
C3        C        0.153846        0.537037        0.115917        0        
C4        C        0.192308        0.481481        0.115917        0        
C1        C        0.153846        0.574075        0.115917        0        
C2        C        0.192308        0.62963        0.115917        0        
C3        C        0.153846        0.648148        0.115917        0        
C4        C        0.192308        0.592592        0.115917        0        
C1        C        0.230769        0.018519        0.115917        0        
C2        C        0.269231        0.074075        0.115917        0        
C3        C        0.230769        0.092592        0.115917        0        
C4        C        0.269231        0.037037        0.115917        0        
C1        C        0.230769        0.12963        0.115917        0        
C2        C        0.269231        0.185185        0.115917        0        
C3        C        0.230769        0.203703        0.115917        0        
C4        C        0.269231        0.148148        0.115917        0        
C1        C        0.230769        0.24074099999999998        0.115917        0        
C2        C        0.269231        0.296297        0.115917        0        
C3        C        0.230769        0.314815        0.115917        0        
C4        C        0.269231        0.259259        0.115917        0        
C1        C        0.230769        0.351852        0.115917        0        
C2        C        0.269231        0.407408        0.115917        0        
C3        C        0.230769        0.42592500000000005        0.115917        0        
C4        C        0.269231        0.37037        0.115917        0        
C1        C        0.230769        0.46296300000000007        0.115917        0        
C2        C        0.269231        0.518519        0.115917        0        
C3        C        0.230769        0.537037        0.115917        0        
C4        C        0.269231        0.481481        0.115917        0        
C1        C        0.230769        0.574075        0.115917        0        
C2        C        0.269231        0.62963        0.115917        0        
C3        C        0.230769        0.648148        0.115917        0        
C4        C        0.269231        0.592592        0.115917        0        
C1        C        0.307692        0.018519        0.115917        0        
C2        C        0.346154        0.074075        0.115917        0        
C3        C        0.307692        0.092592        0.115917        0        
C4        C        0.346154        0.037037        0.115917        0        
C1        C        0.307692        0.12963        0.115917        0        
C2        C        0.346154        0.185185        0.115917        0        
C3        C        0.307692        0.203703        0.115917        0        
C4        C        0.346154        0.148148        0.115917        0        
C1        C        0.307692        0.24074099999999998        0.115917        0        
C2        C        0.346154        0.296297        0.115917        0        
C3        C        0.307692        0.314815        0.115917        0        
C4        C        0.346154        0.259259        0.115917        0        
C1        C        0.307692        0.351852        0.115917        0        
C2        C        0.346154        0.407408        0.115917        0        
C3        C        0.307692        0.42592500000000005        0.115917        0        
C4        C        0.346154        0.37037        0.115917        0        
C1        C        0.307692        0.46296300000000007        0.115917        0        
C2        C        0.346154        0.518519        0.115917        0        
C3        C        0.307692        0.537037        0.115917        0        
C4        C        0.346154        0.481481        0.115917        0        
C1        C        0.307692        0.574075        0.115917        0        
C2        C        0.346154        0.62963        0.115917        0        
C3        C        0.307692        0.648148        0.115917        0        
C4        C        0.346154        0.592592        0.115917        0        
C1        C        0.384615        0.018519        0.115917        0        
C2        C        0.423077        0.074075        0.115917        0        
C3        C        0.384615        0.092592        0.115917        0        
C4        C        0.423077        0.037037        0.115917        0        
C1        C        0.384615        0.12963        0.115917        0        
C2        C        0.423077        0.185185        0.115917        0        
C3        C        0.384615        0.203703        0.115917        0        
C4        C        0.423077        0.148148        0.115917        0        
C1        C        0.384615        0.24074099999999998        0.115917        0        
C2        C        0.423077        0.296297        0.115917        0        
C3        C        0.384615        0.314815        0.115917        0        
C4        C        0.423077        0.259259        0.115917        0        
C1        C        0.384615        0.351852        0.115917        0        
C2        C        0.423077        0.407408        0.115917        0        
C3        C        0.384615        0.42592500000000005        0.115917        0        
C4        C        0.423077        0.37037        0.115917        0        
C1        C        0.384615        0.46296300000000007        0.115917        0        
C2        C        0.423077        0.518519        0.115917        0        
C3        C        0.384615        0.537037        0.115917        0        
C4        C        0.423077        0.481481        0.115917        0        
C1        C        0.384615        0.574075        0.115917        0        
C2        C        0.423077        0.62963        0.115917        0        
C3        C        0.384615        0.648148        0.115917        0        
C4        C        0.423077        0.592592        0.115917        0        
C1        C        0.461538        0.018519        0.115917        0        
C2        C        0.5        0.074075        0.115917        0        
C3        C        0.461538        0.092592        0.115917        0        
C4        C        0.5        0.037037        0.115917        0        
C1        C        0.461538        0.12963        0.115917        0        
C2        C        0.5        0.185185        0.115917        0        
C3        C        0.461538        0.203703        0.115917        0        
C4        C        0.5        0.148148        0.115917        0        
C1        C        0.461538        0.24074099999999998        0.115917        0        
C2        C        0.5        0.296297        0.115917        0        
C3        C        0.461538        0.314815        0.115917        0        
C4        C        0.5        0.259259        0.115917        0        
C1        C        0.461538        0.351852        0.115917        0        
C2        C        0.5        0.407408        0.115917        0        
C3        C        0.461538        0.42592500000000005        0.115917        0        
C4        C        0.5        0.37037        0.115917        0        
C1        C        0.461538        0.46296300000000007        0.115917        0        
C2        C        0.5        0.518519        0.115917        0        
C3        C        0.461538        0.537037        0.115917        0        
C4        C        0.5        0.481481        0.115917        0        
C1        C        0.461538        0.574075        0.115917        0        
C2        C        0.5        0.62963        0.115917        0        
C3        C        0.461538        0.648148        0.115917        0        
C4        C        0.5        0.592592        0.115917        0        
C1        C        0.538462        0.018519        0.115917        0        
C2        C        0.576923        0.074075        0.115917        0        
C3        C        0.538462        0.092592        0.115917        0        
C4        C        0.576923        0.037037        0.115917        0        
C1        C        0.538462        0.12963        0.115917        0        
C2        C        0.576923        0.185185        0.115917        0        
C3        C        0.538462        0.203703        0.115917        0        
C4        C        0.576923        0.148148        0.115917        0        
C1        C        0.538462        0.24074099999999998        0.115917        0        
C2        C        0.576923        0.296297        0.115917        0        
C3        C        0.538462        0.314815        0.115917        0        
C4        C        0.576923        0.259259        0.115917        0        
C1        C        0.538462        0.351852        0.115917        0        
C2        C        0.576923        0.407408        0.115917        0        
C3        C        0.538462        0.42592500000000005        0.115917        0        
C4        C        0.576923        0.37037        0.115917        0        
C1        C        0.538462        0.46296300000000007        0.115917        0        
C2        C        0.576923        0.518519        0.115917        0        
C3        C        0.538462        0.537037        0.115917        0        
C4        C        0.576923        0.481481        0.115917        0        
C1        C        0.538462        0.574075        0.115917        0        
C2        C        0.576923        0.62963        0.115917        0        
C3        C        0.538462        0.648148        0.115917        0        
C4        C        0.576923        0.592592        0.115917        0        
C1        C        0.615385        0.018519        0.115917        0        
C2        C        0.653846        0.074075        0.115917        0        
C3        C        0.615385        0.092592        0.115917        0        
C4        C        0.653846        0.037037        0.115917        0        
C1        C        0.615385        0.12963        0.115917        0        
C2        C        0.653846        0.185185        0.115917        0        
C3        C        0.615385        0.203703        0.115917        0        
C4        C        0.653846        0.148148        0.115917        0        
C1        C        0.615385        0.24074099999999998        0.115917        0        
C2        C        0.653846        0.296297        0.115917        0        
C3        C        0.615385        0.314815        0.115917        0        
C4        C        0.653846        0.259259        0.115917        0        
C1        C        0.615385        0.351852        0.115917        0        
C2        C        0.653846        0.407408        0.115917        0        
C3        C        0.615385        0.42592500000000005        0.115917        0        
C4        C        0.653846        0.37037        0.115917        0        
C1        C        0.615385        0.46296300000000007        0.115917        0        
C2        C        0.653846        0.518519        0.115917        0        
C3        C        0.615385        0.537037        0.115917        0        
C4        C        0.653846        0.481481        0.115917        0        
C1        C        0.615385        0.574075        0.115917        0        
C2        C        0.653846        0.62963        0.115917        0        
C3        C        0.615385        0.648148        0.115917        0        
C4        C        0.653846        0.592592        0.115917        0        
C1        C        0.692308        0.018519        0.115917        0        
C2        C        0.730769        0.074075        0.115917        0        
C3        C        0.692308        0.092592        0.115917        0        
C4        C        0.730769        0.037037        0.115917        0        
C1        C        0.692308        0.12963        0.115917        0        
C2        C        0.730769        0.185185        0.115917        0        
C3        C        0.692308        0.203703        0.115917        0        
C4        C        0.730769        0.148148        0.115917        0        
C1        C        0.692308        0.24074099999999998        0.115917        0        
C2        C        0.730769        0.296297        0.115917        0        
C3        C        0.692308        0.314815        0.115917        0        
C4        C        0.730769        0.259259        0.115917        0        
C1        C        0.692308        0.351852        0.115917        0        
C2        C        0.730769        0.407408        0.115917        0        
C3        C        0.692308        0.42592500000000005        0.115917        0        
C4        C        0.730769        0.37037        0.115917        0        
C1        C        0.692308        0.46296300000000007        0.115917        0        
C2        C        0.730769        0.518519        0.115917        0        
C3        C        0.692308        0.537037        0.115917        0        
C4        C        0.730769        0.481481        0.115917        0        
C1        C        0.692308        0.574075        0.115917        0        
C2        C        0.730769        0.62963        0.115917        0        
C3        C        0.692308        0.648148        0.115917        0        
C4        C        0.730769        0.592592        0.115917        0        
C1        C        0.769231        0.018519        0.115917        0        
C2        C        0.807692        0.074075        0.115917        0        
C3        C        0.769231        0.092592        0.115917        0        
C4        C        0.807692        0.037037        0.115917        0        
C1        C        0.769231        0.12963        0.115917        0        
C2        C        0.807692        0.185185        0.115917        0        
C3        C        0.769231        0.203703        0.115917        0        
C4        C        0.807692        0.148148        0.115917        0        
C1        C        0.769231        0.24074099999999998        0.115917        0        
C2        C        0.807692        0.296297        0.115917        0        
C3        C        0.769231        0.314815        0.115917        0        
C4        C        0.807692        0.259259        0.115917        0        
C1        C        0.769231        0.351852        0.115917        0        
C2        C        0.807692        0.407408        0.115917        0        
C3        C        0.769231        0.42592500000000005        0.115917        0        
C4        C        0.807692        0.37037        0.115917        0        
C1        C        0.769231        0.46296300000000007        0.115917        0        
C2        C        0.807692        0.518519        0.115917        0        
C3        C        0.769231        0.537037        0.115917        0        
C4        C        0.807692        0.481481        0.115917        0        
C1        C        0.769231        0.574075        0.115917        0        
C2        C        0.807692        0.62963        0.115917        0        
C3        C        0.769231        0.648148        0.115917        0        
C4        C        0.807692        0.592592        0.115917        0        
C1        C        0.846154        0.018519        0.115917        0        
C2        C        0.884615        0.074075        0.115917        0        
C3        C        0.846154        0.092592        0.115917        0        
C4        C        0.884615        0.037037        0.115917        0        
C1        C        0.846154        0.12963        0.115917        0        
C2        C        0.884615        0.185185        0.115917        0        
C3        C        0.846154        0.203703        0.115917        0        
C4        C        0.884615        0.148148        0.115917        0        
C1        C        0.846154        0.24074099999999998        0.115917        0        
C2        C        0.884615        0.296297        0.115917        0        
C3        C        0.846154        0.314815        0.115917        0        
C4        C        0.884615        0.259259        0.115917        0        
C1        C        0.846154        0.351852        0.115917        0        
C2        C        0.884615        0.407408        0.115917        0        
C3        C        0.846154        0.42592500000000005        0.115917        0        
C4        C        0.884615        0.37037        0.115917        0        
C1        C        0.846154        0.46296300000000007        0.115917        0        
C2        C        0.884615        0.518519        0.115917        0        
C3        C        0.846154        0.537037        0.115917        0        
C4        C        0.884615        0.481481        0.115917        0        
C1        C        0.846154        0.574075        0.115917        0        
C2        C        0.884615        0.62963        0.115917        0        
C3        C        0.846154        0.648148        0.115917        0        
C4        C        0.884615        0.592592        0.115917        0        
C1        C        0.923077        0.018519        0.115917        0        
C2        C        0.961538        0.074075        0.115917        0        
C3        C        0.923077        0.092592        0.115917        0        
C4        C        0.961538        0.037037        0.115917        0        
C1        C        0.923077        0.12963        0.115917        0        
C2        C        0.961538        0.185185        0.115917        0        
C3        C        0.923077        0.203703        0.115917        0        
C4        C        0.961538        0.148148        0.115917        0        
C1        C        0.923077        0.24074099999999998        0.115917        0        
C2        C        0.961538        0.296297        0.115917        0        
C3        C        0.923077        0.314815        0.115917        0        
C4        C        0.961538        0.259259        0.115917        0        
C1        C        0.923077        0.351852        0.115917        0        
C2        C        0.961538        0.407408        0.115917        0        
C3        C        0.923077        0.42592500000000005        0.115917        0        
C4        C        0.961538        0.37037        0.115917        0        
C1        C        0.923077        0.46296300000000007        0.115917        0        
C2        C        0.961538        0.518519        0.115917        0        
C3        C        0.923077        0.537037        0.115917        0        
C4        C        0.961538        0.481481        0.115917        0        
C1        C        0.923077        0.574075        0.115917        0        
C2        C        0.961538        0.62963        0.115917        0        
C3        C        0.923077        0.648148        0.115917        0        
C4        C        0.961538        0.592592        0.115917        0        
C1        C        1.0        0.018519        0.115917        0        
C2        C        1.038462        0.074075        0.115917        0        
C3        C        1.0        0.092592        0.115917        0        
C4        C        1.038462        0.037037        0.115917        0        
C1        C        1.0        0.12963        0.115917        0        
C2        C        1.038462        0.185185        0.115917        0        
C3        C        1.0        0.203703        0.115917        0        
C4        C        1.038462        0.148148        0.115917        0        
C1        C        1.0        0.24074099999999998        0.115917        0        
C2        C        1.038462        0.296297        0.115917        0        
C3        C        1.0        0.314815        0.115917        0        
C4        C        1.038462        0.259259        0.115917        0        
C1        C        1.0        0.351852        0.115917        0        
C2        C        1.038462        0.407408        0.115917        0        
C3        C        1.0        0.42592500000000005        0.115917        0        
C4        C        1.038462        0.37037        0.115917        0        
C1        C        1.0        0.46296300000000007        0.115917        0        
C2        C        1.038462        0.518519        0.115917        0        
C3        C        1.0        0.537037        0.115917        0        
C4        C        1.038462        0.481481        0.115917        0        
C1        C        1.0        0.574075        0.115917        0        
C2        C        1.038462        0.62963        0.115917        0        
C3        C        1.0        0.648148        0.115917        0        
C4        C        1.038462        0.592592        0.115917        0        
C1        C        0.0        0.685186        0.115917        0        
C1        C        0.076923        0.685186        0.115917        0        
C1        C        0.153846        0.685186        0.115917        0        
C1        C        0.230769        0.685186        0.115917        0        
C1        C        0.307692        0.685186        0.115917        0        
C1        C        0.384615        0.685186        0.115917        0        
C1        C        0.461538        0.685186        0.115917        0        
C1        C        0.538462        0.685186        0.115917        0        
C1        C        0.615385        0.685186        0.115917        0        
C1        C        0.692308        0.685186        0.115917        0        
C1        C        0.769231        0.685186        0.115917        0        
C1        C        0.846154        0.685186        0.115917        0        
C1        C        0.923077        0.685186        0.115917        0        
C1        C        1.0        0.685186        0.115917        0        
C2        C        0.038462        0.740741        0.115917        0        
C2        C        0.115385        0.740741        0.115917        0        
C2        C        0.192308        0.740741        0.115917        0        
C2        C        0.269231        0.740741        0.115917        0        
C2        C        0.346154        0.740741        0.115917        0        
C2        C        0.423077        0.740741        0.115917        0        
C2        C        0.5        0.740741        0.115917        0        
C2        C        0.576923        0.740741        0.115917        0        
C2        C        0.653846        0.740741        0.115917        0        
C2        C        0.730769        0.740741        0.115917        0        
C2        C        0.807692        0.740741        0.115917        0        
C2        C        0.884615        0.740741        0.115917        0        
C2        C        0.961538        0.740741        0.115917        0        
C2        C        1.038462        0.740741        0.115917        0        
C3        C        0.0        0.759259        0.115917        0        
C3        C        0.076923        0.759259        0.115917        0        
C3        C        0.153846        0.759259        0.115917        0        
C3        C        0.230769        0.759259        0.115917        0        
C3        C        0.307692        0.759259        0.115917        0        
C3        C        0.384615        0.759259        0.115917        0        
C3        C        0.461538        0.759259        0.115917        0        
C3        C        0.538462        0.759259        0.115917        0        
C3        C        0.615385        0.759259        0.115917        0        
C3        C        0.692308        0.759259        0.115917        0        
C3        C        0.769231        0.759259        0.115917        0        
C3        C        0.846154        0.759259        0.115917        0        
C3        C        0.923077        0.759259        0.115917        0        
C3        C        1.0        0.759259        0.115917        0        
C4        C        0.038462        0.703703        0.115917        0        
C4        C        0.115385        0.703703        0.115917        0        
C4        C        0.192308        0.703703        0.115917        0        
C4        C        0.269231        0.703703        0.115917        0        
C4        C        0.346154        0.703703        0.115917        0        
C4        C        0.423077        0.703703        0.115917        0        
C4        C        0.5        0.703703        0.115917        0        
C4        C        0.576923        0.703703        0.115917        0        
C4        C        0.653846        0.703703        0.115917        0        
C4        C        0.730769        0.703703        0.115917        0        
C4        C        0.807692        0.703703        0.115917        0        
C4        C        0.884615        0.703703        0.115917        0        
C4        C        0.961538        0.703703        0.115917        0        
C4        C        1.038462        0.703703        0.115917        0        
C1        C        0.0        0.796297        0.115917        0        
C1        C        0.076923        0.796297        0.115917        0        
C1        C        0.153846        0.796297        0.115917        0        
C1        C        0.230769        0.796297        0.115917        0        
C1        C        0.307692        0.796297        0.115917        0        
C1        C        0.384615        0.796297        0.115917        0        
C1        C        0.461538        0.796297        0.115917        0        
C1        C        0.538462        0.796297        0.115917        0        
C1        C        0.615385        0.796297        0.115917        0        
C1        C        0.692308        0.796297        0.115917        0        
C1        C        0.769231        0.796297        0.115917        0        
C1        C        0.846154        0.796297        0.115917        0        
C1        C        0.923077        0.796297        0.115917        0        
C1        C        1.0        0.796297        0.115917        0        
C2        C        0.038462        0.851852        0.115917        0        
C2        C        0.115385        0.851852        0.115917        0        
C2        C        0.192308        0.851852        0.115917        0        
C2        C        0.269231        0.851852        0.115917        0        
C2        C        0.346154        0.851852        0.115917        0        
C2        C        0.423077        0.851852        0.115917        0        
C2        C        0.5        0.851852        0.115917        0        
C2        C        0.576923        0.851852        0.115917        0        
C2        C        0.653846        0.851852        0.115917        0        
C2        C        0.730769        0.851852        0.115917        0        
C2        C        0.807692        0.851852        0.115917        0        
C2        C        0.884615        0.851852        0.115917        0        
C2        C        0.961538        0.851852        0.115917        0        
C2        C        1.038462        0.851852        0.115917        0        
C3        C        0.0        0.87037        0.115917        0        
C3        C        0.076923        0.87037        0.115917        0        
C3        C        0.153846        0.87037        0.115917        0        
C3        C        0.230769        0.87037        0.115917        0        
C3        C        0.307692        0.87037        0.115917        0        
C3        C        0.384615        0.87037        0.115917        0        
C3        C        0.461538        0.87037        0.115917        0        
C3        C        0.538462        0.87037        0.115917        0        
C3        C        0.615385        0.87037        0.115917        0        
C3        C        0.692308        0.87037        0.115917        0        
C3        C        0.769231        0.87037        0.115917        0        
C3        C        0.846154        0.87037        0.115917        0        
C3        C        0.923077        0.87037        0.115917        0        
C3        C        1.0        0.87037        0.115917        0        
C4        C        0.038462        0.814814        0.115917        0        
C4        C        0.115385        0.814814        0.115917        0        
C4        C        0.192308        0.814814        0.115917        0        
C4        C        0.269231        0.814814        0.115917        0        
C4        C        0.346154        0.814814        0.115917        0        
C4        C        0.423077        0.814814        0.115917        0        
C4        C        0.5        0.814814        0.115917        0        
C4        C        0.576923        0.814814        0.115917        0        
C4        C        0.653846        0.814814        0.115917        0        
C4        C        0.730769        0.814814        0.115917        0        
C4        C        0.807692        0.814814        0.115917        0        
C4        C        0.884615        0.814814        0.115917        0        
C4        C        0.961538        0.814814        0.115917        0        
C4        C        1.038462        0.814814        0.115917        0        
C1        C        0.0        0.907408        0.115917        0        
C1        C        0.076923        0.907408        0.115917        0        
C1        C        0.153846        0.907408        0.115917        0        
C1        C        0.230769        0.907408        0.115917        0        
C1        C        0.307692        0.907408        0.115917        0        
C1        C        0.384615        0.907408        0.115917        0        
C1        C        0.461538        0.907408        0.115917        0        
C1        C        0.538462        0.907408        0.115917        0        
C1        C        0.615385        0.907408        0.115917        0        
C1        C        0.692308        0.907408        0.115917        0        
C1        C        0.769231        0.907408        0.115917        0        
C1        C        0.846154        0.907408        0.115917        0        
C1        C        0.923077        0.907408        0.115917        0        
C1        C        1.0        0.907408        0.115917        0        
C2        C        0.038462        0.962963        0.115917        0        
C2        C        0.115385        0.962963        0.115917        0        
C2        C        0.192308        0.962963        0.115917        0        
C2        C        0.269231        0.962963        0.115917        0        
C2        C        0.346154        0.962963        0.115917        0        
C2        C        0.423077        0.962963        0.115917        0        
C2        C        0.5        0.962963        0.115917        0        
C2        C        0.576923        0.962963        0.115917        0        
C2        C        0.653846        0.962963        0.115917        0        
C2        C        0.730769        0.962963        0.115917        0        
C2        C        0.807692        0.962963        0.115917        0        
C2        C        0.884615        0.962963        0.115917        0        
C2        C        0.961538        0.962963        0.115917        0        
C2        C        1.038462        0.962963        0.115917        0        
C3        C        0.0        0.9814809999999999        0.115917        0        
C3        C        0.076923        0.9814809999999999        0.115917        0        
C3        C        0.153846        0.9814809999999999        0.115917        0        
C3        C        0.230769        0.9814809999999999        0.115917        0        
C3        C        0.307692        0.9814809999999999        0.115917        0        
C3        C        0.384615        0.9814809999999999        0.115917        0        
C3        C        0.461538        0.9814809999999999        0.115917        0        
C3        C        0.538462        0.9814809999999999        0.115917        0        
C3        C        0.615385        0.9814809999999999        0.115917        0        
C3        C        0.692308        0.9814809999999999        0.115917        0        
C3        C        0.769231        0.9814809999999999        0.115917        0        
C3        C        0.846154        0.9814809999999999        0.115917        0        
C3        C        0.923077        0.9814809999999999        0.115917        0        
C3        C        1.0        0.9814809999999999        0.115917        0        
C4        C        0.038462        0.925925        0.115917        0        
C4        C        0.115385        0.925925        0.115917        0        
C4        C        0.192308        0.925925        0.115917        0        
C4        C        0.269231        0.925925        0.115917        0        
C4        C        0.346154        0.925925        0.115917        0        
C4        C        0.423077        0.925925        0.115917        0        
C4        C        0.5        0.925925        0.115917        0        
C4        C        0.576923        0.925925        0.115917        0        
C4        C        0.653846        0.925925        0.115917        0        
C4        C        0.730769        0.925925        0.115917        0        
C4        C        0.807692        0.925925        0.115917        0        
C4        C        0.884615        0.925925        0.115917        0        
C4        C        0.961538        0.925925        0.115917        0        
C4        C        1.038462        0.925925        0.115917        0        
C1        C        0.0        0.018519        0.231834        0        
C2        C        0.038462        0.074075        0.231834        0        
C3        C        0.0        0.092592        0.231834        0        
C4        C        0.038462        0.037037        0.231834        0        
C1        C        0.0        0.12963        0.231834        0        
C2        C        0.038462        0.185185        0.231834        0        
C3        C        0.0        0.203703        0.231834        0        
C4        C        0.038462        0.148148        0.231834        0        
C1        C        0.0        0.24074099999999998        0.231834        0        
C2        C        0.038462        0.296297        0.231834        0        
C3        C        0.0        0.314815        0.231834        0        
C4        C        0.038462        0.259259        0.231834        0        
C1        C        0.0        0.351852        0.231834        0        
C2        C        0.038462        0.407408        0.231834        0        
C3        C        0.0        0.42592500000000005        0.231834        0        
C4        C        0.038462        0.37037        0.231834        0        
C1        C        0.0        0.46296300000000007        0.231834        0        
C2        C        0.038462        0.518519        0.231834        0        
C3        C        0.0        0.537037        0.231834        0        
C4        C        0.038462        0.481481        0.231834        0        
C1        C        0.0        0.574075        0.231834        0        
C2        C        0.038462        0.62963        0.231834        0        
C3        C        0.0        0.648148        0.231834        0        
C4        C        0.038462        0.592592        0.231834        0        
C_FG        C        0.076923        0.018519        0.231834        0.2        
C2        C        0.115385        0.074075        0.231834        0        
C3        C        0.076923        0.092592        0.231834        0        
C4        C        0.115385        0.037037        0.231834        0        
C1        C        0.076923        0.12963        0.231834        0        
C2        C        0.115385        0.185185        0.231834        0        
C_FG        C        0.076923        0.203703        0.231834        0.2        
C4        C        0.115385        0.148148        0.231834        0        
C1        C        0.076923        0.24074099999999998        0.231834        0        
C2        C        0.115385        0.296297        0.231834        0        
C3        C        0.076923        0.314815        0.231834        0        
C4        C        0.115385        0.259259        0.231834        0        
C_FG        C        0.076923        0.351852        0.231834        0.2        
C2        C        0.115385        0.407408        0.231834        0        
C3        C        0.076923        0.42592500000000005        0.231834        0        
C4        C        0.115385        0.37037        0.231834        0        
C1        C        0.076923        0.46296300000000007        0.231834        0        
C2        C        0.115385        0.518519        0.231834        0        
C_FG        C        0.076923        0.537037        0.231834        0.2        
C4        C        0.115385        0.481481        0.231834        0        
C1        C        0.076923        0.574075        0.231834        0        
C2        C        0.115385        0.62963        0.231834        0        
C3        C        0.076923        0.648148        0.231834        0        
C4        C        0.115385        0.592592        0.231834        0        
C1        C        0.153846        0.018519        0.231834        0        
C2        C        0.192308        0.074075        0.231834        0        
C3        C        0.153846        0.092592        0.231834        0        
C4        C        0.192308        0.037037        0.231834        0        
C1        C        0.153846        0.12963        0.231834        0        
C2        C        0.192308        0.185185        0.231834        0        
C3        C        0.153846        0.203703        0.231834        0        
C4        C        0.192308        0.148148        0.231834        0        
C1        C        0.153846        0.24074099999999998        0.231834        0        
C2        C        0.192308        0.296297        0.231834        0        
C3        C        0.153846        0.314815        0.231834        0        
C4        C        0.192308        0.259259        0.231834        0        
C1        C        0.153846        0.351852        0.231834        0        
C2        C        0.192308        0.407408        0.231834        0        
C3        C        0.153846        0.42592500000000005        0.231834        0        
C4        C        0.192308        0.37037        0.231834        0        
C1        C        0.153846        0.46296300000000007        0.231834        0        
C2        C        0.192308        0.518519        0.231834        0        
C3        C        0.153846        0.537037        0.231834        0        
C4        C        0.192308        0.481481        0.231834        0        
C1        C        0.153846        0.574075        0.231834        0        
C2        C        0.192308        0.62963        0.231834        0        
C3        C        0.153846        0.648148        0.231834        0        
C4        C        0.192308        0.592592        0.231834        0        
C_FG        C        0.230769        0.018519        0.231834        0.2        
C2        C        0.269231        0.074075        0.231834        0        
C3        C        0.230769        0.092592        0.231834        0        
C4        C        0.269231        0.037037        0.231834        0        
C1        C        0.230769        0.12963        0.231834        0        
C2        C        0.269231        0.185185        0.231834        0        
C_FG        C        0.230769        0.203703        0.231834        0.2        
C4        C        0.269231        0.148148        0.231834        0        
C1        C        0.230769        0.24074099999999998        0.231834        0        
C2        C        0.269231        0.296297        0.231834        0        
C3        C        0.230769        0.314815        0.231834        0        
C4        C        0.269231        0.259259        0.231834        0        
C_FG        C        0.230769        0.351852        0.231834        0.2        
C2        C        0.269231        0.407408        0.231834        0        
C3        C        0.230769        0.42592500000000005        0.231834        0        
C4        C        0.269231        0.37037        0.231834        0        
C1        C        0.230769        0.46296300000000007        0.231834        0        
C2        C        0.269231        0.518519        0.231834        0        
C_FG        C        0.230769        0.537037        0.231834        0.2        
C4        C        0.269231        0.481481        0.231834        0        
C1        C        0.230769        0.574075        0.231834        0        
C2        C        0.269231        0.62963        0.231834        0        
C3        C        0.230769        0.648148        0.231834        0        
C4        C        0.269231        0.592592        0.231834        0        
C1        C        0.307692        0.018519        0.231834        0        
C2        C        0.346154        0.074075        0.231834        0        
C3        C        0.307692        0.092592        0.231834        0        
C4        C        0.346154        0.037037        0.231834        0        
C1        C        0.307692        0.12963        0.231834        0        
C2        C        0.346154        0.185185        0.231834        0        
C3        C        0.307692        0.203703        0.231834        0        
C4        C        0.346154        0.148148        0.231834        0        
C1        C        0.307692        0.24074099999999998        0.231834        0        
C2        C        0.346154        0.296297        0.231834        0        
C3        C        0.307692        0.314815        0.231834        0        
C4        C        0.346154        0.259259        0.231834        0        
C1        C        0.307692        0.351852        0.231834        0        
C2        C        0.346154        0.407408        0.231834        0        
C3        C        0.307692        0.42592500000000005        0.231834        0        
C4        C        0.346154        0.37037        0.231834        0        
C1        C        0.307692        0.46296300000000007        0.231834        0        
C2        C        0.346154        0.518519        0.231834        0        
C3        C        0.307692        0.537037        0.231834        0        
C4        C        0.346154        0.481481        0.231834        0        
C1        C        0.307692        0.574075        0.231834        0        
C2        C        0.346154        0.62963        0.231834        0        
C3        C        0.307692        0.648148        0.231834        0        
C4        C        0.346154        0.592592        0.231834        0        
C1        C        0.384615        0.018519        0.231834        0        
C2        C        0.423077        0.074075        0.231834        0        
C3        C        0.384615        0.092592        0.231834        0        
C4        C        0.423077        0.037037        0.231834        0        
C1        C        0.384615        0.12963        0.231834        0        
C2        C        0.423077        0.185185        0.231834        0        
C3        C        0.384615        0.203703        0.231834        0        
C4        C        0.423077        0.148148        0.231834        0        
C1        C        0.384615        0.24074099999999998        0.231834        0        
C2        C        0.423077        0.296297        0.231834        0        
C3        C        0.384615        0.314815        0.231834        0        
C4        C        0.423077        0.259259        0.231834        0        
C1        C        0.384615        0.351852        0.231834        0        
C2        C        0.423077        0.407408        0.231834        0        
C3        C        0.384615        0.42592500000000005        0.231834        0        
C4        C        0.423077        0.37037        0.231834        0        
C1        C        0.384615        0.46296300000000007        0.231834        0        
C2        C        0.423077        0.518519        0.231834        0        
C3        C        0.384615        0.537037        0.231834        0        
C4        C        0.423077        0.481481        0.231834        0        
C1        C        0.384615        0.574075        0.231834        0        
C2        C        0.423077        0.62963        0.231834        0        
C3        C        0.384615        0.648148        0.231834        0        
C4        C        0.423077        0.592592        0.231834        0        
C1        C        0.461538        0.018519        0.231834        0        
C2        C        0.5        0.074075        0.231834        0        
C3        C        0.461538        0.092592        0.231834        0        
C4        C        0.5        0.037037        0.231834        0        
C1        C        0.461538        0.12963        0.231834        0        
C2        C        0.5        0.185185        0.231834        0        
C3        C        0.461538        0.203703        0.231834        0        
C4        C        0.5        0.148148        0.231834        0        
C1        C        0.461538        0.24074099999999998        0.231834        0        
C2        C        0.5        0.296297        0.231834        0        
C3        C        0.461538        0.314815        0.231834        0        
C4        C        0.5        0.259259        0.231834        0        
C1        C        0.461538        0.351852        0.231834        0        
C2        C        0.5        0.407408        0.231834        0        
C3        C        0.461538        0.42592500000000005        0.231834        0        
C4        C        0.5        0.37037        0.231834        0        
C1        C        0.461538        0.46296300000000007        0.231834        0        
C2        C        0.5        0.518519        0.231834        0        
C3        C        0.461538        0.537037        0.231834        0        
C4        C        0.5        0.481481        0.231834        0        
C1        C        0.461538        0.574075        0.231834        0        
C2        C        0.5        0.62963        0.231834        0        
C3        C        0.461538        0.648148        0.231834        0        
C4        C        0.5        0.592592        0.231834        0        
C1        C        0.538462        0.018519        0.231834        0        
C2        C        0.576923        0.074075        0.231834        0        
C3        C        0.538462        0.092592        0.231834        0        
C4        C        0.576923        0.037037        0.231834        0        
C1        C        0.538462        0.12963        0.231834        0        
C2        C        0.576923        0.185185        0.231834        0        
C3        C        0.538462        0.203703        0.231834        0        
C4        C        0.576923        0.148148        0.231834        0        
C1        C        0.538462        0.24074099999999998        0.231834        0        
C2        C        0.576923        0.296297        0.231834        0        
C3        C        0.538462        0.314815        0.231834        0        
C4        C        0.576923        0.259259        0.231834        0        
C1        C        0.538462        0.351852        0.231834        0        
C2        C        0.576923        0.407408        0.231834        0        
C3        C        0.538462        0.42592500000000005        0.231834        0        
C4        C        0.576923        0.37037        0.231834        0        
C1        C        0.538462        0.46296300000000007        0.231834        0        
C2        C        0.576923        0.518519        0.231834        0        
C3        C        0.538462        0.537037        0.231834        0        
C4        C        0.576923        0.481481        0.231834        0        
C1        C        0.538462        0.574075        0.231834        0        
C2        C        0.576923        0.62963        0.231834        0        
C3        C        0.538462        0.648148        0.231834        0        
C4        C        0.576923        0.592592        0.231834        0        
C1        C        0.615385        0.018519        0.231834        0        
C2        C        0.653846        0.074075        0.231834        0        
C3        C        0.615385        0.092592        0.231834        0        
C4        C        0.653846        0.037037        0.231834        0        
C1        C        0.615385        0.12963        0.231834        0        
C2        C        0.653846        0.185185        0.231834        0        
C3        C        0.615385        0.203703        0.231834        0        
C4        C        0.653846        0.148148        0.231834        0        
C1        C        0.615385        0.24074099999999998        0.231834        0        
C2        C        0.653846        0.296297        0.231834        0        
C3        C        0.615385        0.314815        0.231834        0        
C4        C        0.653846        0.259259        0.231834        0        
C1        C        0.615385        0.351852        0.231834        0        
C2        C        0.653846        0.407408        0.231834        0        
C3        C        0.615385        0.42592500000000005        0.231834        0        
C4        C        0.653846        0.37037        0.231834        0        
C1        C        0.615385        0.46296300000000007        0.231834        0        
C2        C        0.653846        0.518519        0.231834        0        
C3        C        0.615385        0.537037        0.231834        0        
C4        C        0.653846        0.481481        0.231834        0        
C1        C        0.615385        0.574075        0.231834        0        
C2        C        0.653846        0.62963        0.231834        0        
C3        C        0.615385        0.648148        0.231834        0        
C4        C        0.653846        0.592592        0.231834        0        
C1        C        0.692308        0.018519        0.231834        0        
C2        C        0.730769        0.074075        0.231834        0        
C3        C        0.692308        0.092592        0.231834        0        
C4        C        0.730769        0.037037        0.231834        0        
C1        C        0.692308        0.12963        0.231834        0        
C2        C        0.730769        0.185185        0.231834        0        
C3        C        0.692308        0.203703        0.231834        0        
C4        C        0.730769        0.148148        0.231834        0        
C1        C        0.692308        0.24074099999999998        0.231834        0        
C2        C        0.730769        0.296297        0.231834        0        
C3        C        0.692308        0.314815        0.231834        0        
C4        C        0.730769        0.259259        0.231834        0        
C1        C        0.692308        0.351852        0.231834        0        
C2        C        0.730769        0.407408        0.231834        0        
C3        C        0.692308        0.42592500000000005        0.231834        0        
C4        C        0.730769        0.37037        0.231834        0        
C1        C        0.692308        0.46296300000000007        0.231834        0        
C2        C        0.730769        0.518519        0.231834        0        
C3        C        0.692308        0.537037        0.231834        0        
C4        C        0.730769        0.481481        0.231834        0        
C1        C        0.692308        0.574075        0.231834        0        
C2        C        0.730769        0.62963        0.231834        0        
C3        C        0.692308        0.648148        0.231834        0        
C4        C        0.730769        0.592592        0.231834        0        
C1        C        0.769231        0.018519        0.231834        0        
C2        C        0.807692        0.074075        0.231834        0        
C3        C        0.769231        0.092592        0.231834        0        
C4        C        0.807692        0.037037        0.231834        0        
C1        C        0.769231        0.12963        0.231834        0        
C2        C        0.807692        0.185185        0.231834        0        
C3        C        0.769231        0.203703        0.231834        0        
C4        C        0.807692        0.148148        0.231834        0        
C1        C        0.769231        0.24074099999999998        0.231834        0        
C2        C        0.807692        0.296297        0.231834        0        
C3        C        0.769231        0.314815        0.231834        0        
C4        C        0.807692        0.259259        0.231834        0        
C1        C        0.769231        0.351852        0.231834        0        
C2        C        0.807692        0.407408        0.231834        0        
C3        C        0.769231        0.42592500000000005        0.231834        0        
C4        C        0.807692        0.37037        0.231834        0        
C1        C        0.769231        0.46296300000000007        0.231834        0        
C2        C        0.807692        0.518519        0.231834        0        
C3        C        0.769231        0.537037        0.231834        0        
C4        C        0.807692        0.481481        0.231834        0        
C1        C        0.769231        0.574075        0.231834        0        
C2        C        0.807692        0.62963        0.231834        0        
C3        C        0.769231        0.648148        0.231834        0        
C4        C        0.807692        0.592592        0.231834        0        
C_FG        C        0.846154        0.018519        0.231834        0.2        
C2        C        0.884615        0.074075        0.231834        0        
C3        C        0.846154        0.092592        0.231834        0        
C4        C        0.884615        0.037037        0.231834        0        
C1        C        0.846154        0.12963        0.231834        0        
C2        C        0.884615        0.185185        0.231834        0        
C_FG        C        0.846154        0.203703        0.231834        0.2        
C4        C        0.884615        0.148148        0.231834        0        
C1        C        0.846154        0.24074099999999998        0.231834        0        
C2        C        0.884615        0.296297        0.231834        0        
C3        C        0.846154        0.314815        0.231834        0        
C4        C        0.884615        0.259259        0.231834        0        
C_FG        C        0.846154        0.351852        0.231834        0.2        
C2        C        0.884615        0.407408        0.231834        0        
C3        C        0.846154        0.42592500000000005        0.231834        0        
C4        C        0.884615        0.37037        0.231834        0        
C1        C        0.846154        0.46296300000000007        0.231834        0        
C2        C        0.884615        0.518519        0.231834        0        
C_FG        C        0.846154        0.537037        0.231834        0.2        
C4        C        0.884615        0.481481        0.231834        0        
C1        C        0.846154        0.574075        0.231834        0        
C2        C        0.884615        0.62963        0.231834        0        
C3        C        0.846154        0.648148        0.231834        0        
C4        C        0.884615        0.592592        0.231834        0        
C1        C        0.923077        0.018519        0.231834        0        
C2        C        0.961538        0.074075        0.231834        0        
C3        C        0.923077        0.092592        0.231834        0        
C4        C        0.961538        0.037037        0.231834        0        
C1        C        0.923077        0.12963        0.231834        0        
C2        C        0.961538        0.185185        0.231834        0        
C3        C        0.923077        0.203703        0.231834        0        
C4        C        0.961538        0.148148        0.231834        0        
C1        C        0.923077        0.24074099999999998        0.231834        0        
C2        C        0.961538        0.296297        0.231834        0        
C3        C        0.923077        0.314815        0.231834        0        
C4        C        0.961538        0.259259        0.231834        0        
C1        C        0.923077        0.351852        0.231834        0        
C2        C        0.961538        0.407408        0.231834        0        
C3        C        0.923077        0.42592500000000005        0.231834        0        
C4        C        0.961538        0.37037        0.231834        0        
C1        C        0.923077        0.46296300000000007        0.231834        0        
C2        C        0.961538        0.518519        0.231834        0        
C3        C        0.923077        0.537037        0.231834        0        
C4        C        0.961538        0.481481        0.231834        0        
C1        C        0.923077        0.574075        0.231834        0        
C2        C        0.961538        0.62963        0.231834        0        
C3        C        0.923077        0.648148        0.231834        0        
C4        C        0.961538        0.592592        0.231834        0        
C_FG        C        1.0        0.018519        0.231834        0.2        
C2        C        1.038462        0.074075        0.231834        0        
C3        C        1.0        0.092592        0.231834        0        
C4        C        1.038462        0.037037        0.231834        0        
C1        C        1.0        0.12963        0.231834        0        
C2        C        1.038462        0.185185        0.231834        0        
C_FG        C        1.0        0.203703        0.231834        0.2        
C4        C        1.038462        0.148148        0.231834        0        
C1        C        1.0        0.24074099999999998        0.231834        0        
C2        C        1.038462        0.296297        0.231834        0        
C3        C        1.0        0.314815        0.231834        0        
C4        C        1.038462        0.259259        0.231834        0        
C_FG        C        1.0        0.351852        0.231834        0.2        
C2        C        1.038462        0.407408        0.231834        0        
C3        C        1.0        0.42592500000000005        0.231834        0        
C4        C        1.038462        0.37037        0.231834        0        
C1        C        1.0        0.46296300000000007        0.231834        0        
C2        C        1.038462        0.518519        0.231834        0        
C_FG        C        1.0        0.537037        0.231834        0.2        
C4        C        1.038462        0.481481        0.231834        0        
C1        C        1.0        0.574075        0.231834        0        
C2        C        1.038462        0.62963        0.231834        0        
C3        C        1.0        0.648148        0.231834        0        
C4        C        1.038462        0.592592        0.231834        0        
C1        C        0.0        0.685186        0.231834        0        
C_FG        C        0.076923        0.685186        0.231834        0.2        
C1        C        0.153846        0.685186        0.231834        0        
C_FG        C        0.230769        0.685186        0.231834        0.2        
C1        C        0.307692        0.685186        0.231834        0        
C1        C        0.384615        0.685186        0.231834        0        
C1        C        0.461538        0.685186        0.231834        0        
C1        C        0.538462        0.685186        0.231834        0        
C1        C        0.615385        0.685186        0.231834        0        
C1        C        0.692308        0.685186        0.231834        0        
C1        C        0.769231        0.685186        0.231834        0        
C_FG        C        0.846154        0.685186        0.231834        0.2        
C1        C        0.923077        0.685186        0.231834        0        
C_FG        C        1.0        0.685186        0.231834        0.2        
C2        C        0.038462        0.740741        0.231834        0        
C2        C        0.115385        0.740741        0.231834        0        
C2        C        0.192308        0.740741        0.231834        0        
C2        C        0.269231        0.740741        0.231834        0        
C2        C        0.346154        0.740741        0.231834        0        
C2        C        0.423077        0.740741        0.231834        0        
C2        C        0.5        0.740741        0.231834        0        
C2        C        0.576923        0.740741        0.231834        0        
C2        C        0.653846        0.740741        0.231834        0        
C2        C        0.730769        0.740741        0.231834        0        
C2        C        0.807692        0.740741        0.231834        0        
C2        C        0.884615        0.740741        0.231834        0        
C2        C        0.961538        0.740741        0.231834        0        
C2        C        1.038462        0.740741        0.231834        0        
C3        C        0.0        0.759259        0.231834        0        
C3        C        0.076923        0.759259        0.231834        0        
C3        C        0.153846        0.759259        0.231834        0        
C3        C        0.230769        0.759259        0.231834        0        
C3        C        0.307692        0.759259        0.231834        0        
C3        C        0.384615        0.759259        0.231834        0        
C3        C        0.461538        0.759259        0.231834        0        
C3        C        0.538462        0.759259        0.231834        0        
C3        C        0.615385        0.759259        0.231834        0        
C3        C        0.692308        0.759259        0.231834        0        
C3        C        0.769231        0.759259        0.231834        0        
C3        C        0.846154        0.759259        0.231834        0        
C3        C        0.923077        0.759259        0.231834        0        
C3        C        1.0        0.759259        0.231834        0        
C4        C        0.038462        0.703703        0.231834        0        
C4        C        0.115385        0.703703        0.231834        0        
C4        C        0.192308        0.703703        0.231834        0        
C4        C        0.269231        0.703703        0.231834        0        
C4        C        0.346154        0.703703        0.231834        0        
C4        C        0.423077        0.703703        0.231834        0        
C4        C        0.5        0.703703        0.231834        0        
C4        C        0.576923        0.703703        0.231834        0        
C4        C        0.653846        0.703703        0.231834        0        
C4        C        0.730769        0.703703        0.231834        0        
C4        C        0.807692        0.703703        0.231834        0        
C4        C        0.884615        0.703703        0.231834        0        
C4        C        0.961538        0.703703        0.231834        0        
C4        C        1.038462        0.703703        0.231834        0        
C1        C        0.0        0.796297        0.231834        0        
C1        C        0.076923        0.796297        0.231834        0        
C1        C        0.153846        0.796297        0.231834        0        
C1        C        0.230769        0.796297        0.231834        0        
C1        C        0.307692        0.796297        0.231834        0        
C1        C        0.384615        0.796297        0.231834        0        
C1        C        0.461538        0.796297        0.231834        0        
C1        C        0.538462        0.796297        0.231834        0        
C1        C        0.615385        0.796297        0.231834        0        
C1        C        0.692308        0.796297        0.231834        0        
C1        C        0.769231        0.796297        0.231834        0        
C1        C        0.846154        0.796297        0.231834        0        
C1        C        0.923077        0.796297        0.231834        0        
C1        C        1.0        0.796297        0.231834        0        
C2        C        0.038462        0.851852        0.231834        0        
C2        C        0.115385        0.851852        0.231834        0        
C2        C        0.192308        0.851852        0.231834        0        
C2        C        0.269231        0.851852        0.231834        0        
C2        C        0.346154        0.851852        0.231834        0        
C2        C        0.423077        0.851852        0.231834        0        
C2        C        0.5        0.851852        0.231834        0        
C2        C        0.576923        0.851852        0.231834        0        
C2        C        0.653846        0.851852        0.231834        0        
C2        C        0.730769        0.851852        0.231834        0        
C2        C        0.807692        0.851852        0.231834        0        
C2        C        0.884615        0.851852        0.231834        0        
C2        C        0.961538        0.851852        0.231834        0        
C2        C        1.038462        0.851852        0.231834        0        
C3        C        0.0        0.87037        0.231834        0        
C_FG        C        0.076923        0.87037        0.231834        0.2        
C3        C        0.153846        0.87037        0.231834        0        
C_FG        C        0.230769        0.87037        0.231834        0.2        
C3        C        0.307692        0.87037        0.231834        0        
C3        C        0.384615        0.87037        0.231834        0        
C3        C        0.461538        0.87037        0.231834        0        
C3        C        0.538462        0.87037        0.231834        0        
C3        C        0.615385        0.87037        0.231834        0        
C3        C        0.692308        0.87037        0.231834        0        
C3        C        0.769231        0.87037        0.231834        0        
C_FG        C        0.846154        0.87037        0.231834        0.2        
C3        C        0.923077        0.87037        0.231834        0        
C_FG        C        1.0        0.87037        0.231834        0.2        
C4        C        0.038462        0.814814        0.231834        0        
C4        C        0.115385        0.814814        0.231834        0        
C4        C        0.192308        0.814814        0.231834        0        
C4        C        0.269231        0.814814        0.231834        0        
C4        C        0.346154        0.814814        0.231834        0        
C4        C        0.423077        0.814814        0.231834        0        
C4        C        0.5        0.814814        0.231834        0        
C4        C        0.576923        0.814814        0.231834        0        
C4        C        0.653846        0.814814        0.231834        0        
C4        C        0.730769        0.814814        0.231834        0        
C4        C        0.807692        0.814814        0.231834        0        
C4        C        0.884615        0.814814        0.231834        0        
C4        C        0.961538        0.814814        0.231834        0        
C4        C        1.038462        0.814814        0.231834        0        
C1        C        0.0        0.907408        0.231834        0        
C1        C        0.076923        0.907408        0.231834        0        
C1        C        0.153846        0.907408        0.231834        0        
C1        C        0.230769        0.907408        0.231834        0        
C1        C        0.307692        0.907408        0.231834        0        
C1        C        0.384615        0.907408        0.231834        0        
C1        C        0.461538        0.907408        0.231834        0        
C1        C        0.538462        0.907408        0.231834        0        
C1        C        0.615385        0.907408        0.231834        0        
C1        C        0.692308        0.907408        0.231834        0        
C1        C        0.769231        0.907408        0.231834        0        
C1        C        0.846154        0.907408        0.231834        0        
C1        C        0.923077        0.907408        0.231834        0        
C1        C        1.0        0.907408        0.231834        0        
C2        C        0.038462        0.962963        0.231834        0        
C2        C        0.115385        0.962963        0.231834        0        
C2        C        0.192308        0.962963        0.231834        0        
C2        C        0.269231        0.962963        0.231834        0        
C2        C        0.346154        0.962963        0.231834        0        
C2        C        0.423077        0.962963        0.231834        0        
C2        C        0.5        0.962963        0.231834        0        
C2        C        0.576923        0.962963        0.231834        0        
C2        C        0.653846        0.962963        0.231834        0        
C2        C        0.730769        0.962963        0.231834        0        
C2        C        0.807692        0.962963        0.231834        0        
C2        C        0.884615        0.962963        0.231834        0        
C2        C        0.961538        0.962963        0.231834        0        
C2        C        1.038462        0.962963        0.231834        0        
C3        C        0.0        0.9814809999999999        0.231834        0        
C3        C        0.076923        0.9814809999999999        0.231834        0        
C3        C        0.153846        0.9814809999999999        0.231834        0        
C3        C        0.230769        0.9814809999999999        0.231834        0        
C3        C        0.307692        0.9814809999999999        0.231834        0        
C3        C        0.384615        0.9814809999999999        0.231834        0        
C3        C        0.461538        0.9814809999999999        0.231834        0        
C3        C        0.538462        0.9814809999999999        0.231834        0        
C3        C        0.615385        0.9814809999999999        0.231834        0        
C3        C        0.692308        0.9814809999999999        0.231834        0        
C3        C        0.769231        0.9814809999999999        0.231834        0        
C3        C        0.846154        0.9814809999999999        0.231834        0        
C3        C        0.923077        0.9814809999999999        0.231834        0        
C3        C        1.0        0.9814809999999999        0.231834        0        
C4        C        0.038462        0.925925        0.231834        0        
C4        C        0.115385        0.925925        0.231834        0        
C4        C        0.192308        0.925925        0.231834        0        
C4        C        0.269231        0.925925        0.231834        0        
C4        C        0.346154        0.925925        0.231834        0        
C4        C        0.423077        0.925925        0.231834        0        
C4        C        0.5        0.925925        0.231834        0        
C4        C        0.576923        0.925925        0.231834        0        
C4        C        0.653846        0.925925        0.231834        0        
C4        C        0.730769        0.925925        0.231834        0        
C4        C        0.807692        0.925925        0.231834        0        
C4        C        0.884615        0.925925        0.231834        0        
C4        C        0.961538        0.925925        0.231834        0        
C4        C        1.038462        0.925925        0.231834        0        
C1        C        0.0        0.018519        0.768166        0        
C2        C        0.038462        0.074075        0.768166        0        
C3        C        0.0        0.092592        0.768166        0        
C4        C        0.038462        0.037037        0.768166        0        
C1        C        0.0        0.12963        0.768166        0        
C2        C        0.038462        0.185185        0.768166        0        
C3        C        0.0        0.203703        0.768166        0        
C4        C        0.038462        0.148148        0.768166        0        
C1        C        0.0        0.24074099999999998        0.768166        0        
C2        C        0.038462        0.296297        0.768166        0        
C3        C        0.0        0.314815        0.768166        0        
C4        C        0.038462        0.259259        0.768166        0        
C1        C        0.0        0.351852        0.768166        0        
C2        C        0.038462        0.407408        0.768166        0        
C3        C        0.0        0.42592500000000005        0.768166        0        
C4        C        0.038462        0.37037        0.768166        0        
C1        C        0.0        0.46296300000000007        0.768166        0        
C2        C        0.038462        0.518519        0.768166        0        
C3        C        0.0        0.537037        0.768166        0        
C4        C        0.038462        0.481481        0.768166        0        
C1        C        0.0        0.574075        0.768166        0        
C2        C        0.038462        0.62963        0.768166        0        
C3        C        0.0        0.648148        0.768166        0        
C4        C        0.038462        0.592592        0.768166        0        
C_FG        C        0.076923        0.018519        0.768166        0.2        
C2        C        0.115385        0.074075        0.768166        0        
C3        C        0.076923        0.092592        0.768166        0        
C4        C        0.115385        0.037037        0.768166        0        
C1        C        0.076923        0.12963        0.768166        0        
C2        C        0.115385        0.185185        0.768166        0        
C_FG        C        0.076923        0.203703        0.768166        0.2        
C4        C        0.115385        0.148148        0.768166        0        
C1        C        0.076923        0.24074099999999998        0.768166        0        
C2        C        0.115385        0.296297        0.768166        0        
C3        C        0.076923        0.314815        0.768166        0        
C4        C        0.115385        0.259259        0.768166        0        
C_FG        C        0.076923        0.351852        0.768166        0.2        
C2        C        0.115385        0.407408        0.768166        0        
C3        C        0.076923        0.42592500000000005        0.768166        0        
C4        C        0.115385        0.37037        0.768166        0        
C1        C        0.076923        0.46296300000000007        0.768166        0        
C2        C        0.115385        0.518519        0.768166        0        
C_FG        C        0.076923        0.537037        0.768166        0.2        
C4        C        0.115385        0.481481        0.768166        0        
C1        C        0.076923        0.574075        0.768166        0        
C2        C        0.115385        0.62963        0.768166        0        
C3        C        0.076923        0.648148        0.768166        0        
C4        C        0.115385        0.592592        0.768166        0        
C1        C        0.153846        0.018519        0.768166        0        
C2        C        0.192308        0.074075        0.768166        0        
C3        C        0.153846        0.092592        0.768166        0        
C4        C        0.192308        0.037037        0.768166        0        
C1        C        0.153846        0.12963        0.768166        0        
C2        C        0.192308        0.185185        0.768166        0        
C3        C        0.153846        0.203703        0.768166        0        
C4        C        0.192308        0.148148        0.768166        0        
C1        C        0.153846        0.24074099999999998        0.768166        0        
C2        C        0.192308        0.296297        0.768166        0        
C3        C        0.153846        0.314815        0.768166        0        
C4        C        0.192308        0.259259        0.768166        0        
C1        C        0.153846        0.351852        0.768166        0        
C2        C        0.192308        0.407408        0.768166        0        
C3        C        0.153846        0.42592500000000005        0.768166        0        
C4        C        0.192308        0.37037        0.768166        0        
C1        C        0.153846        0.46296300000000007        0.768166        0        
C2        C        0.192308        0.518519        0.768166        0        
C3        C        0.153846        0.537037        0.768166        0        
C4        C        0.192308        0.481481        0.768166        0        
C1        C        0.153846        0.574075        0.768166        0        
C2        C        0.192308        0.62963        0.768166        0        
C3        C        0.153846        0.648148        0.768166        0        
C4        C        0.192308        0.592592        0.768166        0        
C_FG        C        0.230769        0.018519        0.768166        0.2        
C2        C        0.269231        0.074075        0.768166        0        
C3        C        0.230769        0.092592        0.768166        0        
C4        C        0.269231        0.037037        0.768166        0        
C1        C        0.230769        0.12963        0.768166        0        
C2        C        0.269231        0.185185        0.768166        0        
C_FG        C        0.230769        0.203703        0.768166        0.2        
C4        C        0.269231        0.148148        0.768166        0        
C1        C        0.230769        0.24074099999999998        0.768166        0        
C2        C        0.269231        0.296297        0.768166        0        
C3        C        0.230769        0.314815        0.768166        0        
C4        C        0.269231        0.259259        0.768166        0        
C_FG        C        0.230769        0.351852        0.768166        0.2        
C2        C        0.269231        0.407408        0.768166        0        
C3        C        0.230769        0.42592500000000005        0.768166        0        
C4        C        0.269231        0.37037        0.768166        0        
C1        C        0.230769        0.46296300000000007        0.768166        0        
C2        C        0.269231        0.518519        0.768166        0        
C_FG        C        0.230769        0.537037        0.768166        0.2        
C4        C        0.269231        0.481481        0.768166        0        
C1        C        0.230769        0.574075        0.768166        0        
C2        C        0.269231        0.62963        0.768166        0        
C3        C        0.230769        0.648148        0.768166        0        
C4        C        0.269231        0.592592        0.768166        0        
C1        C        0.307692        0.018519        0.768166        0        
C2        C        0.346154        0.074075        0.768166        0        
C3        C        0.307692        0.092592        0.768166        0        
C4        C        0.346154        0.037037        0.768166        0        
C1        C        0.307692        0.12963        0.768166        0        
C2        C        0.346154        0.185185        0.768166        0        
C3        C        0.307692        0.203703        0.768166        0        
C4        C        0.346154        0.148148        0.768166        0        
C1        C        0.307692        0.24074099999999998        0.768166        0        
C2        C        0.346154        0.296297        0.768166        0        
C3        C        0.307692        0.314815        0.768166        0        
C4        C        0.346154        0.259259        0.768166        0        
C1        C        0.307692        0.351852        0.768166        0        
C2        C        0.346154        0.407408        0.768166        0        
C3        C        0.307692        0.42592500000000005        0.768166        0        
C4        C        0.346154        0.37037        0.768166        0        
C1        C        0.307692        0.46296300000000007        0.768166        0        
C2        C        0.346154        0.518519        0.768166        0        
C3        C        0.307692        0.537037        0.768166        0        
C4        C        0.346154        0.481481        0.768166        0        
C1        C        0.307692        0.574075        0.768166        0        
C2        C        0.346154        0.62963        0.768166        0        
C3        C        0.307692        0.648148        0.768166        0        
C4        C        0.346154        0.592592        0.768166        0        
C1        C        0.384615        0.018519        0.768166        0        
C2        C        0.423077        0.074075        0.768166        0        
C3        C        0.384615        0.092592        0.768166        0        
C4        C        0.423077        0.037037        0.768166        0        
C1        C        0.384615        0.12963        0.768166        0        
C2        C        0.423077        0.185185        0.768166        0        
C3        C        0.384615        0.203703        0.768166        0        
C4        C        0.423077        0.148148        0.768166        0        
C1        C        0.384615        0.24074099999999998        0.768166        0        
C2        C        0.423077        0.296297        0.768166        0        
C3        C        0.384615        0.314815        0.768166        0        
C4        C        0.423077        0.259259        0.768166        0        
C1        C        0.384615        0.351852        0.768166        0        
C2        C        0.423077        0.407408        0.768166        0        
C3        C        0.384615        0.42592500000000005        0.768166        0        
C4        C        0.423077        0.37037        0.768166        0        
C1        C        0.384615        0.46296300000000007        0.768166        0        
C2        C        0.423077        0.518519        0.768166        0        
C3        C        0.384615        0.537037        0.768166        0        
C4        C        0.423077        0.481481        0.768166        0        
C1        C        0.384615        0.574075        0.768166        0        
C2        C        0.423077        0.62963        0.768166        0        
C3        C        0.384615        0.648148        0.768166        0        
C4        C        0.423077        0.592592        0.768166        0        
C1        C        0.461538        0.018519        0.768166        0        
C2        C        0.5        0.074075        0.768166        0        
C3        C        0.461538        0.092592        0.768166        0        
C4        C        0.5        0.037037        0.768166        0        
C1        C        0.461538        0.12963        0.768166        0        
C2        C        0.5        0.185185        0.768166        0        
C3        C        0.461538        0.203703        0.768166        0        
C4        C        0.5        0.148148        0.768166        0        
C1        C        0.461538        0.24074099999999998        0.768166        0        
C2        C        0.5        0.296297        0.768166        0        
C3        C        0.461538        0.314815        0.768166        0        
C4        C        0.5        0.259259        0.768166        0        
C1        C        0.461538        0.351852        0.768166        0        
C2        C        0.5        0.407408        0.768166        0        
C3        C        0.461538        0.42592500000000005        0.768166        0        
C4        C        0.5        0.37037        0.768166        0        
C1        C        0.461538        0.46296300000000007        0.768166        0        
C2        C        0.5        0.518519        0.768166        0        
C3        C        0.461538        0.537037        0.768166        0        
C4        C        0.5        0.481481        0.768166        0        
C1        C        0.461538        0.574075        0.768166        0        
C2        C        0.5        0.62963        0.768166        0        
C3        C        0.461538        0.648148        0.768166        0        
C4        C        0.5        0.592592        0.768166        0        
C1        C        0.538462        0.018519        0.768166        0        
C2        C        0.576923        0.074075        0.768166        0        
C3        C        0.538462        0.092592        0.768166        0        
C4        C        0.576923        0.037037        0.768166        0        
C1        C        0.538462        0.12963        0.768166        0        
C2        C        0.576923        0.185185        0.768166        0        
C3        C        0.538462        0.203703        0.768166        0        
C4        C        0.576923        0.148148        0.768166        0        
C1        C        0.538462        0.24074099999999998        0.768166        0        
C2        C        0.576923        0.296297        0.768166        0        
C3        C        0.538462        0.314815        0.768166        0        
C4        C        0.576923        0.259259        0.768166        0        
C1        C        0.538462        0.351852        0.768166        0        
C2        C        0.576923        0.407408        0.768166        0        
C3        C        0.538462        0.42592500000000005        0.768166        0        
C4        C        0.576923        0.37037        0.768166        0        
C1        C        0.538462        0.46296300000000007        0.768166        0        
C2        C        0.576923        0.518519        0.768166        0        
C3        C        0.538462        0.537037        0.768166        0        
C4        C        0.576923        0.481481        0.768166        0        
C1        C        0.538462        0.574075        0.768166        0        
C2        C        0.576923        0.62963        0.768166        0        
C3        C        0.538462        0.648148        0.768166        0        
C4        C        0.576923        0.592592        0.768166        0        
C1        C        0.615385        0.018519        0.768166        0        
C2        C        0.653846        0.074075        0.768166        0        
C3        C        0.615385        0.092592        0.768166        0        
C4        C        0.653846        0.037037        0.768166        0        
C1        C        0.615385        0.12963        0.768166        0        
C2        C        0.653846        0.185185        0.768166        0        
C3        C        0.615385        0.203703        0.768166        0        
C4        C        0.653846        0.148148        0.768166        0        
C1        C        0.615385        0.24074099999999998        0.768166        0        
C2        C        0.653846        0.296297        0.768166        0        
C3        C        0.615385        0.314815        0.768166        0        
C4        C        0.653846        0.259259        0.768166        0        
C1        C        0.615385        0.351852        0.768166        0        
C2        C        0.653846        0.407408        0.768166        0        
C3        C        0.615385        0.42592500000000005        0.768166        0        
C4        C        0.653846        0.37037        0.768166        0        
C1        C        0.615385        0.46296300000000007        0.768166        0        
C2        C        0.653846        0.518519        0.768166        0        
C3        C        0.615385        0.537037        0.768166        0        
C4        C        0.653846        0.481481        0.768166        0        
C1        C        0.615385        0.574075        0.768166        0        
C2        C        0.653846        0.62963        0.768166        0        
C3        C        0.615385        0.648148        0.768166        0        
C4        C        0.653846        0.592592        0.768166        0        
C1        C        0.692308        0.018519        0.768166        0        
C2        C        0.730769        0.074075        0.768166        0        
C3        C        0.692308        0.092592        0.768166        0        
C4        C        0.730769        0.037037        0.768166        0        
C1        C        0.692308        0.12963        0.768166        0        
C2        C        0.730769        0.185185        0.768166        0        
C3        C        0.692308        0.203703        0.768166        0        
C4        C        0.730769        0.148148        0.768166        0        
C1        C        0.692308        0.24074099999999998        0.768166        0        
C2        C        0.730769        0.296297        0.768166        0        
C3        C        0.692308        0.314815        0.768166        0        
C4        C        0.730769        0.259259        0.768166        0        
C1        C        0.692308        0.351852        0.768166        0        
C2        C        0.730769        0.407408        0.768166        0        
C3        C        0.692308        0.42592500000000005        0.768166        0        
C4        C        0.730769        0.37037        0.768166        0        
C1        C        0.692308        0.46296300000000007        0.768166        0        
C2        C        0.730769        0.518519        0.768166        0        
C3        C        0.692308        0.537037        0.768166        0        
C4        C        0.730769        0.481481        0.768166        0        
C1        C        0.692308        0.574075        0.768166        0        
C2        C        0.730769        0.62963        0.768166        0        
C3        C        0.692308        0.648148        0.768166        0        
C4        C        0.730769        0.592592        0.768166        0        
C1        C        0.769231        0.018519        0.768166        0        
C2        C        0.807692        0.074075        0.768166        0        
C3        C        0.769231        0.092592        0.768166        0        
C4        C        0.807692        0.037037        0.768166        0        
C1        C        0.769231        0.12963        0.768166        0        
C2        C        0.807692        0.185185        0.768166        0        
C3        C        0.769231        0.203703        0.768166        0        
C4        C        0.807692        0.148148        0.768166        0        
C1        C        0.769231        0.24074099999999998        0.768166        0        
C2        C        0.807692        0.296297        0.768166        0        
C3        C        0.769231        0.314815        0.768166        0        
C4        C        0.807692        0.259259        0.768166        0        
C1        C        0.769231        0.351852        0.768166        0        
C2        C        0.807692        0.407408        0.768166        0        
C3        C        0.769231        0.42592500000000005        0.768166        0        
C4        C        0.807692        0.37037        0.768166        0        
C1        C        0.769231        0.46296300000000007        0.768166        0        
C2        C        0.807692        0.518519        0.768166        0        
C3        C        0.769231        0.537037        0.768166        0        
C4        C        0.807692        0.481481        0.768166        0        
C1        C        0.769231        0.574075        0.768166        0        
C2        C        0.807692        0.62963        0.768166        0        
C3        C        0.769231        0.648148        0.768166        0        
C4        C        0.807692        0.592592        0.768166        0        
C_FG        C        0.846154        0.018519        0.768166        0.2        
C2        C        0.884615        0.074075        0.768166        0        
C3        C        0.846154        0.092592        0.768166        0        
C4        C        0.884615        0.037037        0.768166        0        
C1        C        0.846154        0.12963        0.768166        0        
C2        C        0.884615        0.185185        0.768166        0        
C_FG        C        0.846154        0.203703        0.768166        0.2        
C4        C        0.884615        0.148148        0.768166        0        
C1        C        0.846154        0.24074099999999998        0.768166        0        
C2        C        0.884615        0.296297        0.768166        0        
C3        C        0.846154        0.314815        0.768166        0        
C4        C        0.884615        0.259259        0.768166        0        
C_FG        C        0.846154        0.351852        0.768166        0.2        
C2        C        0.884615        0.407408        0.768166        0        
C3        C        0.846154        0.42592500000000005        0.768166        0        
C4        C        0.884615        0.37037        0.768166        0        
C1        C        0.846154        0.46296300000000007        0.768166        0        
C2        C        0.884615        0.518519        0.768166        0        
C_FG        C        0.846154        0.537037        0.768166        0.2        
C4        C        0.884615        0.481481        0.768166        0        
C1        C        0.846154        0.574075        0.768166        0        
C2        C        0.884615        0.62963        0.768166        0        
C3        C        0.846154        0.648148        0.768166        0        
C4        C        0.884615        0.592592        0.768166        0        
C1        C        0.923077        0.018519        0.768166        0        
C2        C        0.961538        0.074075        0.768166        0        
C3        C        0.923077        0.092592        0.768166        0        
C4        C        0.961538        0.037037        0.768166        0        
C1        C        0.923077        0.12963        0.768166        0        
C2        C        0.961538        0.185185        0.768166        0        
C3        C        0.923077        0.203703        0.768166        0        
C4        C        0.961538        0.148148        0.768166        0        
C1        C        0.923077        0.24074099999999998        0.768166        0        
C2        C        0.961538        0.296297        0.768166        0        
C3        C        0.923077        0.314815        0.768166        0        
C4        C        0.961538        0.259259        0.768166        0        
C1        C        0.923077        0.351852        0.768166        0        
C2        C        0.961538        0.407408        0.768166        0        
C3        C        0.923077        0.42592500000000005        0.768166        0        
C4        C        0.961538        0.37037        0.768166        0        
C1        C        0.923077        0.46296300000000007        0.768166        0        
C2        C        0.961538        0.518519        0.768166        0        
C3        C        0.923077        0.537037        0.768166        0        
C4        C        0.961538        0.481481        0.768166        0        
C1        C        0.923077        0.574075        0.768166        0        
C2        C        0.961538        0.62963        0.768166        0        
C3        C        0.923077        0.648148        0.768166        0        
C4        C        0.961538        0.592592        0.768166        0        
C_FG        C        1.0        0.018519        0.768166        0.2        
C2        C        1.038462        0.074075        0.768166        0        
C3        C        1.0        0.092592        0.768166        0        
C4        C        1.038462        0.037037        0.768166        0        
C1        C        1.0        0.12963        0.768166        0        
C2        C        1.038462        0.185185        0.768166        0        
C_FG        C        1.0        0.203703        0.768166        0.2        
C4        C        1.038462        0.148148        0.768166        0        
C1        C        1.0        0.24074099999999998        0.768166        0        
C2        C        1.038462        0.296297        0.768166        0        
C3        C        1.0        0.314815        0.768166        0        
C4        C        1.038462        0.259259        0.768166        0        
C_FG        C        1.0        0.351852        0.768166        0.2        
C2        C        1.038462        0.407408        0.768166        0        
C3        C        1.0        0.42592500000000005        0.768166        0        
C4        C        1.038462        0.37037        0.768166        0        
C1        C        1.0        0.46296300000000007        0.768166        0        
C2        C        1.038462        0.518519        0.768166        0        
C_FG        C        1.0        0.537037        0.768166        0.2        
C4        C        1.038462        0.481481        0.768166        0        
C1        C        1.0        0.574075        0.768166        0        
C2        C        1.038462        0.62963        0.768166        0        
C3        C        1.0        0.648148        0.768166        0        
C4        C        1.038462        0.592592        0.768166        0        
C1        C        0.0        0.685186        0.768166        0        
C_FG        C        0.076923        0.685186        0.768166        0.2        
C1        C        0.153846        0.685186        0.768166        0        
C_FG        C        0.230769        0.685186        0.768166        0.2        
C1        C        0.307692        0.685186        0.768166        0        
C1        C        0.384615        0.685186        0.768166        0        
C1        C        0.461538        0.685186        0.768166        0        
C1        C        0.538462        0.685186        0.768166        0        
C1        C        0.615385        0.685186        0.768166        0        
C1        C        0.692308        0.685186        0.768166        0        
C1        C        0.769231        0.685186        0.768166        0        
C_FG        C        0.846154        0.685186        0.768166        0.2        
C1        C        0.923077        0.685186        0.768166        0        
C_FG        C        1.0        0.685186        0.768166        0.2        
C2        C        0.038462        0.740741        0.768166        0        
C2        C        0.115385        0.740741        0.768166        0        
C2        C        0.192308        0.740741        0.768166        0        
C2        C        0.269231        0.740741        0.768166        0        
C2        C        0.346154        0.740741        0.768166        0        
C2        C        0.423077        0.740741        0.768166        0        
C2        C        0.5        0.740741        0.768166        0        
C2        C        0.576923        0.740741        0.768166        0        
C2        C        0.653846        0.740741        0.768166        0        
C2        C        0.730769        0.740741        0.768166        0        
C2        C        0.807692        0.740741        0.768166        0        
C2        C        0.884615        0.740741        0.768166        0        
C2        C        0.961538        0.740741        0.768166        0        
C2        C        1.038462        0.740741        0.768166        0        
C3        C        0.0        0.759259        0.768166        0        
C3        C        0.076923        0.759259        0.768166        0        
C3        C        0.153846        0.759259        0.768166        0        
C3        C        0.230769        0.759259        0.768166        0        
C3        C        0.307692        0.759259        0.768166        0        
C3        C        0.384615        0.759259        0.768166        0        
C3        C        0.461538        0.759259        0.768166        0        
C3        C        0.538462        0.759259        0.768166        0        
C3        C        0.615385        0.759259        0.768166        0        
C3        C        0.692308        0.759259        0.768166        0        
C3        C        0.769231        0.759259        0.768166        0        
C3        C        0.846154        0.759259        0.768166        0        
C3        C        0.923077        0.759259        0.768166        0        
C3        C        1.0        0.759259        0.768166        0        
C4        C        0.038462        0.703703        0.768166        0        
C4        C        0.115385        0.703703        0.768166        0        
C4        C        0.192308        0.703703        0.768166        0        
C4        C        0.269231        0.703703        0.768166        0        
C4        C        0.346154        0.703703        0.768166        0        
C4        C        0.423077        0.703703        0.768166        0        
C4        C        0.5        0.703703        0.768166        0        
C4        C        0.576923        0.703703        0.768166        0        
C4        C        0.653846        0.703703        0.768166        0        
C4        C        0.730769        0.703703        0.768166        0        
C4        C        0.807692        0.703703        0.768166        0        
C4        C        0.884615        0.703703        0.768166        0        
C4        C        0.961538        0.703703        0.768166        0        
C4        C        1.038462        0.703703        0.768166        0        
C1        C        0.0        0.796297        0.768166        0        
C1        C        0.076923        0.796297        0.768166        0        
C1        C        0.153846        0.796297        0.768166        0        
C1        C        0.230769        0.796297        0.768166        0        
C1        C        0.307692        0.796297        0.768166        0        
C1        C        0.384615        0.796297        0.768166        0        
C1        C        0.461538        0.796297        0.768166        0        
C1        C        0.538462        0.796297        0.768166        0        
C1        C        0.615385        0.796297        0.768166        0        
C1        C        0.692308        0.796297        0.768166        0        
C1        C        0.769231        0.796297        0.768166        0        
C1        C        0.846154        0.796297        0.768166        0        
C1        C        0.923077        0.796297        0.768166        0        
C1        C        1.0        0.796297        0.768166        0        
C2        C        0.038462        0.851852        0.768166        0        
C2        C        0.115385        0.851852        0.768166        0        
C2        C        0.192308        0.851852        0.768166        0        
C2        C        0.269231        0.851852        0.768166        0        
C2        C        0.346154        0.851852        0.768166        0        
C2        C        0.423077        0.851852        0.768166        0        
C2        C        0.5        0.851852        0.768166        0        
C2        C        0.576923        0.851852        0.768166        0        
C2        C        0.653846        0.851852        0.768166        0        
C2        C        0.730769        0.851852        0.768166        0        
C2        C        0.807692        0.851852        0.768166        0        
C2        C        0.884615        0.851852        0.768166        0        
C2        C        0.961538        0.851852        0.768166        0        
C2        C        1.038462        0.851852        0.768166        0        
C3        C        0.0        0.87037        0.768166        0        
C_FG        C        0.076923        0.87037        0.768166        0.2        
C3        C        0.153846        0.87037        0.768166        0        
C_FG        C        0.230769        0.87037        0.768166        0.2        
C3        C        0.307692        0.87037        0.768166        0        
C3        C        0.384615        0.87037        0.768166        0        
C3        C        0.461538        0.87037        0.768166        0        
C3        C        0.538462        0.87037        0.768166        0        
C3        C        0.615385        0.87037        0.768166        0        
C3        C        0.692308        0.87037        0.768166        0        
C3        C        0.769231        0.87037        0.768166        0        
C_FG        C        0.846154        0.87037        0.768166        0.2        
C3        C        0.923077        0.87037        0.768166        0        
C_FG        C        1.0        0.87037        0.768166        0.2        
C4        C        0.038462        0.814814        0.768166        0        
C4        C        0.115385        0.814814        0.768166        0        
C4        C        0.192308        0.814814        0.768166        0        
C4        C        0.269231        0.814814        0.768166        0        
C4        C        0.346154        0.814814        0.768166        0        
C4        C        0.423077        0.814814        0.768166        0        
C4        C        0.5        0.814814        0.768166        0        
C4        C        0.576923        0.814814        0.768166        0        
C4        C        0.653846        0.814814        0.768166        0        
C4        C        0.730769        0.814814        0.768166        0        
C4        C        0.807692        0.814814        0.768166        0        
C4        C        0.884615        0.814814        0.768166        0        
C4        C        0.961538        0.814814        0.768166        0        
C4        C        1.038462        0.814814        0.768166        0        
C1        C        0.0        0.907408        0.768166        0        
C1        C        0.076923        0.907408        0.768166        0        
C1        C        0.153846        0.907408        0.768166        0        
C1        C        0.230769        0.907408        0.768166        0        
C1        C        0.307692        0.907408        0.768166        0        
C1        C        0.384615        0.907408        0.768166        0        
C1        C        0.461538        0.907408        0.768166        0        
C1        C        0.538462        0.907408        0.768166        0        
C1        C        0.615385        0.907408        0.768166        0        
C1        C        0.692308        0.907408        0.768166        0        
C1        C        0.769231        0.907408        0.768166        0        
C1        C        0.846154        0.907408        0.768166        0        
C1        C        0.923077        0.907408        0.768166        0        
C1        C        1.0        0.907408        0.768166        0        
C2        C        0.038462        0.962963        0.768166        0        
C2        C        0.115385        0.962963        0.768166        0        
C2        C        0.192308        0.962963        0.768166        0        
C2        C        0.269231        0.962963        0.768166        0        
C2        C        0.346154        0.962963        0.768166        0        
C2        C        0.423077        0.962963        0.768166        0        
C2        C        0.5        0.962963        0.768166        0        
C2        C        0.576923        0.962963        0.768166        0        
C2        C        0.653846        0.962963        0.768166        0        
C2        C        0.730769        0.962963        0.768166        0        
C2        C        0.807692        0.962963        0.768166        0        
C2        C        0.884615        0.962963        0.768166        0        
C2        C        0.961538        0.962963        0.768166        0        
C2        C        1.038462        0.962963        0.768166        0        
C3        C        0.0        0.9814809999999999        0.768166        0        
C3        C        0.076923        0.9814809999999999        0.768166        0        
C3        C        0.153846        0.9814809999999999        0.768166        0        
C3        C        0.230769        0.9814809999999999        0.768166        0        
C3        C        0.307692        0.9814809999999999        0.768166        0        
C3        C        0.384615        0.9814809999999999        0.768166        0        
C3        C        0.461538        0.9814809999999999        0.768166        0        
C3        C        0.538462        0.9814809999999999        0.768166        0        
C3        C        0.615385        0.9814809999999999        0.768166        0        
C3        C        0.692308        0.9814809999999999        0.768166        0        
C3        C        0.769231        0.9814809999999999        0.768166        0        
C3        C        0.846154        0.9814809999999999        0.768166        0        
C3        C        0.923077        0.9814809999999999        0.768166        0        
C3        C        1.0        0.9814809999999999        0.768166        0        
C4        C        0.038462        0.925925        0.768166        0        
C4        C        0.115385        0.925925        0.768166        0        
C4        C        0.192308        0.925925        0.768166        0        
C4        C        0.269231        0.925925        0.768166        0        
C4        C        0.346154        0.925925        0.768166        0        
C4        C        0.423077        0.925925        0.768166        0        
C4        C        0.5        0.925925        0.768166        0        
C4        C        0.576923        0.925925        0.768166        0        
C4        C        0.653846        0.925925        0.768166        0        
C4        C        0.730769        0.925925        0.768166        0        
C4        C        0.807692        0.925925        0.768166        0        
C4        C        0.884615        0.925925        0.768166        0        
C4        C        0.961538        0.925925        0.768166        0        
C4        C        1.038462        0.925925        0.768166        0        
C1        C        0.0        0.018519        0.884083        0        
C2        C        0.038462        0.074075        0.884083        0        
C3        C        0.0        0.092592        0.884083        0        
C4        C        0.038462        0.037037        0.884083        0        
C1        C        0.0        0.12963        0.884083        0        
C2        C        0.038462        0.185185        0.884083        0        
C3        C        0.0        0.203703        0.884083        0        
C4        C        0.038462        0.148148        0.884083        0        
C1        C        0.0        0.24074099999999998        0.884083        0        
C2        C        0.038462        0.296297        0.884083        0        
C3        C        0.0        0.314815        0.884083        0        
C4        C        0.038462        0.259259        0.884083        0        
C1        C        0.0        0.351852        0.884083        0        
C2        C        0.038462        0.407408        0.884083        0        
C3        C        0.0        0.42592500000000005        0.884083        0        
C4        C        0.038462        0.37037        0.884083        0        
C1        C        0.0        0.46296300000000007        0.884083        0        
C2        C        0.038462        0.518519        0.884083        0        
C3        C        0.0        0.537037        0.884083        0        
C4        C        0.038462        0.481481        0.884083        0        
C1        C        0.0        0.574075        0.884083        0        
C2        C        0.038462        0.62963        0.884083        0        
C3        C        0.0        0.648148        0.884083        0        
C4        C        0.038462        0.592592        0.884083        0        
C1        C        0.076923        0.018519        0.884083        0        
C2        C        0.115385        0.074075        0.884083        0        
C3        C        0.076923        0.092592        0.884083        0        
C4        C        0.115385        0.037037        0.884083        0        
C1        C        0.076923        0.12963        0.884083        0        
C2        C        0.115385        0.185185        0.884083        0        
C3        C        0.076923        0.203703        0.884083        0        
C4        C        0.115385        0.148148        0.884083        0        
C1        C        0.076923        0.24074099999999998        0.884083        0        
C2        C        0.115385        0.296297        0.884083        0        
C3        C        0.076923        0.314815        0.884083        0        
C4        C        0.115385        0.259259        0.884083        0        
C1        C        0.076923        0.351852        0.884083        0        
C2        C        0.115385        0.407408        0.884083        0        
C3        C        0.076923        0.42592500000000005        0.884083        0        
C4        C        0.115385        0.37037        0.884083        0        
C1        C        0.076923        0.46296300000000007        0.884083        0        
C2        C        0.115385        0.518519        0.884083        0        
C3        C        0.076923        0.537037        0.884083        0        
C4        C        0.115385        0.481481        0.884083        0        
C1        C        0.076923        0.574075        0.884083        0        
C2        C        0.115385        0.62963        0.884083        0        
C3        C        0.076923        0.648148        0.884083        0        
C4        C        0.115385        0.592592        0.884083        0        
C1        C        0.153846        0.018519        0.884083        0        
C2        C        0.192308        0.074075        0.884083        0        
C3        C        0.153846        0.092592        0.884083        0        
C4        C        0.192308        0.037037        0.884083        0        
C1        C        0.153846        0.12963        0.884083        0        
C2        C        0.192308        0.185185        0.884083        0        
C3        C        0.153846        0.203703        0.884083        0        
C4        C        0.192308        0.148148        0.884083        0        
C1        C        0.153846        0.24074099999999998        0.884083        0        
C2        C        0.192308        0.296297        0.884083        0        
C3        C        0.153846        0.314815        0.884083        0        
C4        C        0.192308        0.259259        0.884083        0        
C1        C        0.153846        0.351852        0.884083        0        
C2        C        0.192308        0.407408        0.884083        0        
C3        C        0.153846        0.42592500000000005        0.884083        0        
C4        C        0.192308        0.37037        0.884083        0        
C1        C        0.153846        0.46296300000000007        0.884083        0        
C2        C        0.192308        0.518519        0.884083        0        
C3        C        0.153846        0.537037        0.884083        0        
C4        C        0.192308        0.481481        0.884083        0        
C1        C        0.153846        0.574075        0.884083        0        
C2        C        0.192308        0.62963        0.884083        0        
C3        C        0.153846        0.648148        0.884083        0        
C4        C        0.192308        0.592592        0.884083        0        
C1        C        0.230769        0.018519        0.884083        0        
C2        C        0.269231        0.074075        0.884083        0        
C3        C        0.230769        0.092592        0.884083        0        
C4        C        0.269231        0.037037        0.884083        0        
C1        C        0.230769        0.12963        0.884083        0        
C2        C        0.269231        0.185185        0.884083        0        
C3        C        0.230769        0.203703        0.884083        0        
C4        C        0.269231        0.148148        0.884083        0        
C1        C        0.230769        0.24074099999999998        0.884083        0        
C2        C        0.269231        0.296297        0.884083        0        
C3        C        0.230769        0.314815        0.884083        0        
C4        C        0.269231        0.259259        0.884083        0        
C1        C        0.230769        0.351852        0.884083        0        
C2        C        0.269231        0.407408        0.884083        0        
C3        C        0.230769        0.42592500000000005        0.884083        0        
C4        C        0.269231        0.37037        0.884083        0        
C1        C        0.230769        0.46296300000000007        0.884083        0        
C2        C        0.269231        0.518519        0.884083        0        
C3        C        0.230769        0.537037        0.884083        0        
C4        C        0.269231        0.481481        0.884083        0        
C1        C        0.230769        0.574075        0.884083        0        
C2        C        0.269231        0.62963        0.884083        0        
C3        C        0.230769        0.648148        0.884083        0        
C4        C        0.269231        0.592592        0.884083        0        
C1        C        0.307692        0.018519        0.884083        0        
C2        C        0.346154        0.074075        0.884083        0        
C3        C        0.307692        0.092592        0.884083        0        
C4        C        0.346154        0.037037        0.884083        0        
C1        C        0.307692        0.12963        0.884083        0        
C2        C        0.346154        0.185185        0.884083        0        
C3        C        0.307692        0.203703        0.884083        0        
C4        C        0.346154        0.148148        0.884083        0        
C1        C        0.307692        0.24074099999999998        0.884083        0        
C2        C        0.346154        0.296297        0.884083        0        
C3        C        0.307692        0.314815        0.884083        0        
C4        C        0.346154        0.259259        0.884083        0        
C1        C        0.307692        0.351852        0.884083        0        
C2        C        0.346154        0.407408        0.884083        0        
C3        C        0.307692        0.42592500000000005        0.884083        0        
C4        C        0.346154        0.37037        0.884083        0        
C1        C        0.307692        0.46296300000000007        0.884083        0        
C2        C        0.346154        0.518519        0.884083        0        
C3        C        0.307692        0.537037        0.884083        0        
C4        C        0.346154        0.481481        0.884083        0        
C1        C        0.307692        0.574075        0.884083        0        
C2        C        0.346154        0.62963        0.884083        0        
C3        C        0.307692        0.648148        0.884083        0        
C4        C        0.346154        0.592592        0.884083        0        
C1        C        0.384615        0.018519        0.884083        0        
C2        C        0.423077        0.074075        0.884083        0        
C3        C        0.384615        0.092592        0.884083        0        
C4        C        0.423077        0.037037        0.884083        0        
C1        C        0.384615        0.12963        0.884083        0        
C2        C        0.423077        0.185185        0.884083        0        
C3        C        0.384615        0.203703        0.884083        0        
C4        C        0.423077        0.148148        0.884083        0        
C1        C        0.384615        0.24074099999999998        0.884083        0        
C2        C        0.423077        0.296297        0.884083        0        
C3        C        0.384615        0.314815        0.884083        0        
C4        C        0.423077        0.259259        0.884083        0        
C1        C        0.384615        0.351852        0.884083        0        
C2        C        0.423077        0.407408        0.884083        0        
C3        C        0.384615        0.42592500000000005        0.884083        0        
C4        C        0.423077        0.37037        0.884083        0        
C1        C        0.384615        0.46296300000000007        0.884083        0        
C2        C        0.423077        0.518519        0.884083        0        
C3        C        0.384615        0.537037        0.884083        0        
C4        C        0.423077        0.481481        0.884083        0        
C1        C        0.384615        0.574075        0.884083        0        
C2        C        0.423077        0.62963        0.884083        0        
C3        C        0.384615        0.648148        0.884083        0        
C4        C        0.423077        0.592592        0.884083        0        
C1        C        0.461538        0.018519        0.884083        0        
C2        C        0.5        0.074075        0.884083        0        
C3        C        0.461538        0.092592        0.884083        0        
C4        C        0.5        0.037037        0.884083        0        
C1        C        0.461538        0.12963        0.884083        0        
C2        C        0.5        0.185185        0.884083        0        
C3        C        0.461538        0.203703        0.884083        0        
C4        C        0.5        0.148148        0.884083        0        
C1        C        0.461538        0.24074099999999998        0.884083        0        
C2        C        0.5        0.296297        0.884083        0        
C3        C        0.461538        0.314815        0.884083        0        
C4        C        0.5        0.259259        0.884083        0        
C1        C        0.461538        0.351852        0.884083        0        
C2        C        0.5        0.407408        0.884083        0        
C3        C        0.461538        0.42592500000000005        0.884083        0        
C4        C        0.5        0.37037        0.884083        0        
C1        C        0.461538        0.46296300000000007        0.884083        0        
C2        C        0.5        0.518519        0.884083        0        
C3        C        0.461538        0.537037        0.884083        0        
C4        C        0.5        0.481481        0.884083        0        
C1        C        0.461538        0.574075        0.884083        0        
C2        C        0.5        0.62963        0.884083        0        
C3        C        0.461538        0.648148        0.884083        0        
C4        C        0.5        0.592592        0.884083        0        
C1        C        0.538462        0.018519        0.884083        0        
C2        C        0.576923        0.074075        0.884083        0        
C3        C        0.538462        0.092592        0.884083        0        
C4        C        0.576923        0.037037        0.884083        0        
C1        C        0.538462        0.12963        0.884083        0        
C2        C        0.576923        0.185185        0.884083        0        
C3        C        0.538462        0.203703        0.884083        0        
C4        C        0.576923        0.148148        0.884083        0        
C1        C        0.538462        0.24074099999999998        0.884083        0        
C2        C        0.576923        0.296297        0.884083        0        
C3        C        0.538462        0.314815        0.884083        0        
C4        C        0.576923        0.259259        0.884083        0        
C1        C        0.538462        0.351852        0.884083        0        
C2        C        0.576923        0.407408        0.884083        0        
C3        C        0.538462        0.42592500000000005        0.884083        0        
C4        C        0.576923        0.37037        0.884083        0        
C1        C        0.538462        0.46296300000000007        0.884083        0        
C2        C        0.576923        0.518519        0.884083        0        
C3        C        0.538462        0.537037        0.884083        0        
C4        C        0.576923        0.481481        0.884083        0        
C1        C        0.538462        0.574075        0.884083        0        
C2        C        0.576923        0.62963        0.884083        0        
C3        C        0.538462        0.648148        0.884083        0        
C4        C        0.576923        0.592592        0.884083        0        
C1        C        0.615385        0.018519        0.884083        0        
C2        C        0.653846        0.074075        0.884083        0        
C3        C        0.615385        0.092592        0.884083        0        
C4        C        0.653846        0.037037        0.884083        0        
C1        C        0.615385        0.12963        0.884083        0        
C2        C        0.653846        0.185185        0.884083        0        
C3        C        0.615385        0.203703        0.884083        0        
C4        C        0.653846        0.148148        0.884083        0        
C1        C        0.615385        0.24074099999999998        0.884083        0        
C2        C        0.653846        0.296297        0.884083        0        
C3        C        0.615385        0.314815        0.884083        0        
C4        C        0.653846        0.259259        0.884083        0        
C1        C        0.615385        0.351852        0.884083        0        
C2        C        0.653846        0.407408        0.884083        0        
C3        C        0.615385        0.42592500000000005        0.884083        0        
C4        C        0.653846        0.37037        0.884083        0        
C1        C        0.615385        0.46296300000000007        0.884083        0        
C2        C        0.653846        0.518519        0.884083        0        
C3        C        0.615385        0.537037        0.884083        0        
C4        C        0.653846        0.481481        0.884083        0        
C1        C        0.615385        0.574075        0.884083        0        
C2        C        0.653846        0.62963        0.884083        0        
C3        C        0.615385        0.648148        0.884083        0        
C4        C        0.653846        0.592592        0.884083        0        
C1        C        0.692308        0.018519        0.884083        0        
C2        C        0.730769        0.074075        0.884083        0        
C3        C        0.692308        0.092592        0.884083        0        
C4        C        0.730769        0.037037        0.884083        0        
C1        C        0.692308        0.12963        0.884083        0        
C2        C        0.730769        0.185185        0.884083        0        
C3        C        0.692308        0.203703        0.884083        0        
C4        C        0.730769        0.148148        0.884083        0        
C1        C        0.692308        0.24074099999999998        0.884083        0        
C2        C        0.730769        0.296297        0.884083        0        
C3        C        0.692308        0.314815        0.884083        0        
C4        C        0.730769        0.259259        0.884083        0        
C1        C        0.692308        0.351852        0.884083        0        
C2        C        0.730769        0.407408        0.884083        0        
C3        C        0.692308        0.42592500000000005        0.884083        0        
C4        C        0.730769        0.37037        0.884083        0        
C1        C        0.692308        0.46296300000000007        0.884083        0        
C2        C        0.730769        0.518519        0.884083        0        
C3        C        0.692308        0.537037        0.884083        0        
C4        C        0.730769        0.481481        0.884083        0        
C1        C        0.692308        0.574075        0.884083        0        
C2        C        0.730769        0.62963        0.884083        0        
C3        C        0.692308        0.648148        0.884083        0        
C4        C        0.730769        0.592592        0.884083        0        
C1        C        0.769231        0.018519        0.884083        0        
C2        C        0.807692        0.074075        0.884083        0        
C3        C        0.769231        0.092592        0.884083        0        
C4        C        0.807692        0.037037        0.884083        0        
C1        C        0.769231        0.12963        0.884083        0        
C2        C        0.807692        0.185185        0.884083        0        
C3        C        0.769231        0.203703        0.884083        0        
C4        C        0.807692        0.148148        0.884083        0        
C1        C        0.769231        0.24074099999999998        0.884083        0        
C2        C        0.807692        0.296297        0.884083        0        
C3        C        0.769231        0.314815        0.884083        0        
C4        C        0.807692        0.259259        0.884083        0        
C1        C        0.769231        0.351852        0.884083        0        
C2        C        0.807692        0.407408        0.884083        0        
C3        C        0.769231        0.42592500000000005        0.884083        0        
C4        C        0.807692        0.37037        0.884083        0        
C1        C        0.769231        0.46296300000000007        0.884083        0        
C2        C        0.807692        0.518519        0.884083        0        
C3        C        0.769231        0.537037        0.884083        0        
C4        C        0.807692        0.481481        0.884083        0        
C1        C        0.769231        0.574075        0.884083        0        
C2        C        0.807692        0.62963        0.884083        0        
C3        C        0.769231        0.648148        0.884083        0        
C4        C        0.807692        0.592592        0.884083        0        
C1        C        0.846154        0.018519        0.884083        0        
C2        C        0.884615        0.074075        0.884083        0        
C3        C        0.846154        0.092592        0.884083        0        
C4        C        0.884615        0.037037        0.884083        0        
C1        C        0.846154        0.12963        0.884083        0        
C2        C        0.884615        0.185185        0.884083        0        
C3        C        0.846154        0.203703        0.884083        0        
C4        C        0.884615        0.148148        0.884083        0        
C1        C        0.846154        0.24074099999999998        0.884083        0        
C2        C        0.884615        0.296297        0.884083        0        
C3        C        0.846154        0.314815        0.884083        0        
C4        C        0.884615        0.259259        0.884083        0        
C1        C        0.846154        0.351852        0.884083        0        
C2        C        0.884615        0.407408        0.884083        0        
C3        C        0.846154        0.42592500000000005        0.884083        0        
C4        C        0.884615        0.37037        0.884083        0        
C1        C        0.846154        0.46296300000000007        0.884083        0        
C2        C        0.884615        0.518519        0.884083        0        
C3        C        0.846154        0.537037        0.884083        0        
C4        C        0.884615        0.481481        0.884083        0        
C1        C        0.846154        0.574075        0.884083        0        
C2        C        0.884615        0.62963        0.884083        0        
C3        C        0.846154        0.648148        0.884083        0        
C4        C        0.884615        0.592592        0.884083        0        
C1        C        0.923077        0.018519        0.884083        0        
C2        C        0.961538        0.074075        0.884083        0        
C3        C        0.923077        0.092592        0.884083        0        
C4        C        0.961538        0.037037        0.884083        0        
C1        C        0.923077        0.12963        0.884083        0        
C2        C        0.961538        0.185185        0.884083        0        
C3        C        0.923077        0.203703        0.884083        0        
C4        C        0.961538        0.148148        0.884083        0        
C1        C        0.923077        0.24074099999999998        0.884083        0        
C2        C        0.961538        0.296297        0.884083        0        
C3        C        0.923077        0.314815        0.884083        0        
C4        C        0.961538        0.259259        0.884083        0        
C1        C        0.923077        0.351852        0.884083        0        
C2        C        0.961538        0.407408        0.884083        0        
C3        C        0.923077        0.42592500000000005        0.884083        0        
C4        C        0.961538        0.37037        0.884083        0        
C1        C        0.923077        0.46296300000000007        0.884083        0        
C2        C        0.961538        0.518519        0.884083        0        
C3        C        0.923077        0.537037        0.884083        0        
C4        C        0.961538        0.481481        0.884083        0        
C1        C        0.923077        0.574075        0.884083        0        
C2        C        0.961538        0.62963        0.884083        0        
C3        C        0.923077        0.648148        0.884083        0        
C4        C        0.961538        0.592592        0.884083        0        
C1        C        1.0        0.018519        0.884083        0        
C2        C        1.038462        0.074075        0.884083        0        
C3        C        1.0        0.092592        0.884083        0        
C4        C        1.038462        0.037037        0.884083        0        
C1        C        1.0        0.12963        0.884083        0        
C2        C        1.038462        0.185185        0.884083        0        
C3        C        1.0        0.203703        0.884083        0        
C4        C        1.038462        0.148148        0.884083        0        
C1        C        1.0        0.24074099999999998        0.884083        0        
C2        C        1.038462        0.296297        0.884083        0        
C3        C        1.0        0.314815        0.884083        0        
C4        C        1.038462        0.259259        0.884083        0        
C1        C        1.0        0.351852        0.884083        0        
C2        C        1.038462        0.407408        0.884083        0        
C3        C        1.0        0.42592500000000005        0.884083        0        
C4        C        1.038462        0.37037        0.884083        0        
C1        C        1.0        0.46296300000000007        0.884083        0        
C2        C        1.038462        0.518519        0.884083        0        
C3        C        1.0        0.537037        0.884083        0        
C4        C        1.038462        0.481481        0.884083        0        
C1        C        1.0        0.574075        0.884083        0        
C2        C        1.038462        0.62963        0.884083        0        
C3        C        1.0        0.648148        0.884083        0        
C4        C        1.038462        0.592592        0.884083        0        
C1        C        0.0        0.685186        0.884083        0        
C1        C        0.076923        0.685186        0.884083        0        
C1        C        0.153846        0.685186        0.884083        0        
C1        C        0.230769        0.685186        0.884083        0        
C1        C        0.307692        0.685186        0.884083        0        
C1        C        0.384615        0.685186        0.884083        0        
C1        C        0.461538        0.685186        0.884083        0        
C1        C        0.538462        0.685186        0.884083        0        
C1        C        0.615385        0.685186        0.884083        0        
C1        C        0.692308        0.685186        0.884083        0        
C1        C        0.769231        0.685186        0.884083        0        
C1        C        0.846154        0.685186        0.884083        0        
C1        C        0.923077        0.685186        0.884083        0        
C1        C        1.0        0.685186        0.884083        0        
C2        C        0.038462        0.740741        0.884083        0        
C2        C        0.115385        0.740741        0.884083        0        
C2        C        0.192308        0.740741        0.884083        0        
C2        C        0.269231        0.740741        0.884083        0        
C2        C        0.346154        0.740741        0.884083        0        
C2        C        0.423077        0.740741        0.884083        0        
C2        C        0.5        0.740741        0.884083        0        
C2        C        0.576923        0.740741        0.884083        0        
C2        C        0.653846        0.740741        0.884083        0        
C2        C        0.730769        0.740741        0.884083        0        
C2        C        0.807692        0.740741        0.884083        0        
C2        C        0.884615        0.740741        0.884083        0        
C2        C        0.961538        0.740741        0.884083        0        
C2        C        1.038462        0.740741        0.884083        0        
C3        C        0.0        0.759259        0.884083        0        
C3        C        0.076923        0.759259        0.884083        0        
C3        C        0.153846        0.759259        0.884083        0        
C3        C        0.230769        0.759259        0.884083        0        
C3        C        0.307692        0.759259        0.884083        0        
C3        C        0.384615        0.759259        0.884083        0        
C3        C        0.461538        0.759259        0.884083        0        
C3        C        0.538462        0.759259        0.884083        0        
C3        C        0.615385        0.759259        0.884083        0        
C3        C        0.692308        0.759259        0.884083        0        
C3        C        0.769231        0.759259        0.884083        0        
C3        C        0.846154        0.759259        0.884083        0        
C3        C        0.923077        0.759259        0.884083        0        
C3        C        1.0        0.759259        0.884083        0        
C4        C        0.038462        0.703703        0.884083        0        
C4        C        0.115385        0.703703        0.884083        0        
C4        C        0.192308        0.703703        0.884083        0        
C4        C        0.269231        0.703703        0.884083        0        
C4        C        0.346154        0.703703        0.884083        0        
C4        C        0.423077        0.703703        0.884083        0        
C4        C        0.5        0.703703        0.884083        0        
C4        C        0.576923        0.703703        0.884083        0        
C4        C        0.653846        0.703703        0.884083        0        
C4        C        0.730769        0.703703        0.884083        0        
C4        C        0.807692        0.703703        0.884083        0        
C4        C        0.884615        0.703703        0.884083        0        
C4        C        0.961538        0.703703        0.884083        0        
C4        C        1.038462        0.703703        0.884083        0        
C1        C        0.0        0.796297        0.884083        0        
C1        C        0.076923        0.796297        0.884083        0        
C1        C        0.153846        0.796297        0.884083        0        
C1        C        0.230769        0.796297        0.884083        0        
C1        C        0.307692        0.796297        0.884083        0        
C1        C        0.384615        0.796297        0.884083        0        
C1        C        0.461538        0.796297        0.884083        0        
C1        C        0.538462        0.796297        0.884083        0        
C1        C        0.615385        0.796297        0.884083        0        
C1        C        0.692308        0.796297        0.884083        0        
C1        C        0.769231        0.796297        0.884083        0        
C1        C        0.846154        0.796297        0.884083        0        
C1        C        0.923077        0.796297        0.884083        0        
C1        C        1.0        0.796297        0.884083        0        
C2        C        0.038462        0.851852        0.884083        0        
C2        C        0.115385        0.851852        0.884083        0        
C2        C        0.192308        0.851852        0.884083        0        
C2        C        0.269231        0.851852        0.884083        0        
C2        C        0.346154        0.851852        0.884083        0        
C2        C        0.423077        0.851852        0.884083        0        
C2        C        0.5        0.851852        0.884083        0        
C2        C        0.576923        0.851852        0.884083        0        
C2        C        0.653846        0.851852        0.884083        0        
C2        C        0.730769        0.851852        0.884083        0        
C2        C        0.807692        0.851852        0.884083        0        
C2        C        0.884615        0.851852        0.884083        0        
C2        C        0.961538        0.851852        0.884083        0        
C2        C        1.038462        0.851852        0.884083        0        
C3        C        0.0        0.87037        0.884083        0        
C3        C        0.076923        0.87037        0.884083        0        
C3        C        0.153846        0.87037        0.884083        0        
C3        C        0.230769        0.87037        0.884083        0        
C3        C        0.307692        0.87037        0.884083        0        
C3        C        0.384615        0.87037        0.884083        0        
C3        C        0.461538        0.87037        0.884083        0        
C3        C        0.538462        0.87037        0.884083        0        
C3        C        0.615385        0.87037        0.884083        0        
C3        C        0.692308        0.87037        0.884083        0        
C3        C        0.769231        0.87037        0.884083        0        
C3        C        0.846154        0.87037        0.884083        0        
C3        C        0.923077        0.87037        0.884083        0        
C3        C        1.0        0.87037        0.884083        0        
C4        C        0.038462        0.814814        0.884083        0        
C4        C        0.115385        0.814814        0.884083        0        
C4        C        0.192308        0.814814        0.884083        0        
C4        C        0.269231        0.814814        0.884083        0        
C4        C        0.346154        0.814814        0.884083        0        
C4        C        0.423077        0.814814        0.884083        0        
C4        C        0.5        0.814814        0.884083        0        
C4        C        0.576923        0.814814        0.884083        0        
C4        C        0.653846        0.814814        0.884083        0        
C4        C        0.730769        0.814814        0.884083        0        
C4        C        0.807692        0.814814        0.884083        0        
C4        C        0.884615        0.814814        0.884083        0        
C4        C        0.961538        0.814814        0.884083        0        
C4        C        1.038462        0.814814        0.884083        0        
C1        C        0.0        0.907408        0.884083        0        
C1        C        0.076923        0.907408        0.884083        0        
C1        C        0.153846        0.907408        0.884083        0        
C1        C        0.230769        0.907408        0.884083        0        
C1        C        0.307692        0.907408        0.884083        0        
C1        C        0.384615        0.907408        0.884083        0        
C1        C        0.461538        0.907408        0.884083        0        
C1        C        0.538462        0.907408        0.884083        0        
C1        C        0.615385        0.907408        0.884083        0        
C1        C        0.692308        0.907408        0.884083        0        
C1        C        0.769231        0.907408        0.884083        0        
C1        C        0.846154        0.907408        0.884083        0        
C1        C        0.923077        0.907408        0.884083        0        
C1        C        1.0        0.907408        0.884083        0        
C2        C        0.038462        0.962963        0.884083        0        
C2        C        0.115385        0.962963        0.884083        0        
C2        C        0.192308        0.962963        0.884083        0        
C2        C        0.269231        0.962963        0.884083        0        
C2        C        0.346154        0.962963        0.884083        0        
C2        C        0.423077        0.962963        0.884083        0        
C2        C        0.5        0.962963        0.884083        0        
C2        C        0.576923        0.962963        0.884083        0        
C2        C        0.653846        0.962963        0.884083        0        
C2        C        0.730769        0.962963        0.884083        0        
C2        C        0.807692        0.962963        0.884083        0        
C2        C        0.884615        0.962963        0.884083        0        
C2        C        0.961538        0.962963        0.884083        0        
C2        C        1.038462        0.962963        0.884083        0        
C3        C        0.0        0.9814809999999999        0.884083        0        
C3        C        0.076923        0.9814809999999999        0.884083        0        
C3        C        0.153846        0.9814809999999999        0.884083        0        
C3        C        0.230769        0.9814809999999999        0.884083        0        
C3        C        0.307692        0.9814809999999999        0.884083        0        
C3        C        0.384615        0.9814809999999999        0.884083        0        
C3        C        0.461538        0.9814809999999999        0.884083        0        
C3        C        0.538462        0.9814809999999999        0.884083        0        
C3        C        0.615385        0.9814809999999999        0.884083        0        
C3        C        0.692308        0.9814809999999999        0.884083        0        
C3        C        0.769231        0.9814809999999999        0.884083        0        
C3        C        0.846154        0.9814809999999999        0.884083        0        
C3        C        0.923077        0.9814809999999999        0.884083        0        
C3        C        1.0        0.9814809999999999        0.884083        0        
C4        C        0.038462        0.925925        0.884083        0        
C4        C        0.115385        0.925925        0.884083        0        
C4        C        0.192308        0.925925        0.884083        0        
C4        C        0.269231        0.925925        0.884083        0        
C4        C        0.346154        0.925925        0.884083        0        
C4        C        0.423077        0.925925        0.884083        0        
C4        C        0.5        0.925925        0.884083        0        
C4        C        0.576923        0.925925        0.884083        0        
C4        C        0.653846        0.925925        0.884083        0        
C4        C        0.730769        0.925925        0.884083        0        
C4        C        0.807692        0.925925        0.884083        0        
C4        C        0.884615        0.925925        0.884083        0        
C4        C        0.961538        0.925925        0.884083        0        
C4        C        1.038462        0.925925        0.884083        0        
C1        C        0.0        0.018519        1.0        0        
C2        C        0.038462        0.074075        1.0        0        
C3        C        0.0        0.092592        1.0        0        
C4        C        0.038462        0.037037        1.0        0        
C1        C        0.0        0.12963        1.0        0        
C2        C        0.038462        0.185185        1.0        0        
C3        C        0.0        0.203703        1.0        0        
C4        C        0.038462        0.148148        1.0        0        
C1        C        0.0        0.24074099999999998        1.0        0        
C2        C        0.038462        0.296297        1.0        0        
C3        C        0.0        0.314815        1.0        0        
C4        C        0.038462        0.259259        1.0        0        
C1        C        0.0        0.351852        1.0        0        
C2        C        0.038462        0.407408        1.0        0        
C3        C        0.0        0.42592500000000005        1.0        0        
C4        C        0.038462        0.37037        1.0        0        
C1        C        0.0        0.46296300000000007        1.0        0        
C2        C        0.038462        0.518519        1.0        0        
C3        C        0.0        0.537037        1.0        0        
C4        C        0.038462        0.481481        1.0        0        
C1        C        0.0        0.574075        1.0        0        
C2        C        0.038462        0.62963        1.0        0        
C3        C        0.0        0.648148        1.0        0        
C4        C        0.038462        0.592592        1.0        0        
C1        C        0.076923        0.018519        1.0        0        
C2        C        0.115385        0.074075        1.0        0        
C3        C        0.076923        0.092592        1.0        0        
C4        C        0.115385        0.037037        1.0        0        
C1        C        0.076923        0.12963        1.0        0        
C2        C        0.115385        0.185185        1.0        0        
C3        C        0.076923        0.203703        1.0        0        
C4        C        0.115385        0.148148        1.0        0        
C1        C        0.076923        0.24074099999999998        1.0        0        
C2        C        0.115385        0.296297        1.0        0        
C3        C        0.076923        0.314815        1.0        0        
C4        C        0.115385        0.259259        1.0        0        
C1        C        0.076923        0.351852        1.0        0        
C2        C        0.115385        0.407408        1.0        0        
C3        C        0.076923        0.42592500000000005        1.0        0        
C4        C        0.115385        0.37037        1.0        0        
C1        C        0.076923        0.46296300000000007        1.0        0        
C2        C        0.115385        0.518519        1.0        0        
C3        C        0.076923        0.537037        1.0        0        
C4        C        0.115385        0.481481        1.0        0        
C1        C        0.076923        0.574075        1.0        0        
C2        C        0.115385        0.62963        1.0        0        
C3        C        0.076923        0.648148        1.0        0        
C4        C        0.115385        0.592592        1.0        0        
C1        C        0.153846        0.018519        1.0        0        
C2        C        0.192308        0.074075        1.0        0        
C3        C        0.153846        0.092592        1.0        0        
C4        C        0.192308        0.037037        1.0        0        
C1        C        0.153846        0.12963        1.0        0        
C2        C        0.192308        0.185185        1.0        0        
C3        C        0.153846        0.203703        1.0        0        
C4        C        0.192308        0.148148        1.0        0        
C1        C        0.153846        0.24074099999999998        1.0        0        
C2        C        0.192308        0.296297        1.0        0        
C3        C        0.153846        0.314815        1.0        0        
C4        C        0.192308        0.259259        1.0        0        
C1        C        0.153846        0.351852        1.0        0        
C2        C        0.192308        0.407408        1.0        0        
C3        C        0.153846        0.42592500000000005        1.0        0        
C4        C        0.192308        0.37037        1.0        0        
C1        C        0.153846        0.46296300000000007        1.0        0        
C2        C        0.192308        0.518519        1.0        0        
C3        C        0.153846        0.537037        1.0        0        
C4        C        0.192308        0.481481        1.0        0        
C1        C        0.153846        0.574075        1.0        0        
C2        C        0.192308        0.62963        1.0        0        
C3        C        0.153846        0.648148        1.0        0        
C4        C        0.192308        0.592592        1.0        0        
C1        C        0.230769        0.018519        1.0        0        
C2        C        0.269231        0.074075        1.0        0        
C3        C        0.230769        0.092592        1.0        0        
C4        C        0.269231        0.037037        1.0        0        
C1        C        0.230769        0.12963        1.0        0        
C2        C        0.269231        0.185185        1.0        0        
C3        C        0.230769        0.203703        1.0        0        
C4        C        0.269231        0.148148        1.0        0        
C1        C        0.230769        0.24074099999999998        1.0        0        
C2        C        0.269231        0.296297        1.0        0        
C3        C        0.230769        0.314815        1.0        0        
C4        C        0.269231        0.259259        1.0        0        
C1        C        0.230769        0.351852        1.0        0        
C2        C        0.269231        0.407408        1.0        0        
C3        C        0.230769        0.42592500000000005        1.0        0        
C4        C        0.269231        0.37037        1.0        0        
C1        C        0.230769        0.46296300000000007        1.0        0        
C2        C        0.269231        0.518519        1.0        0        
C3        C        0.230769        0.537037        1.0        0        
C4        C        0.269231        0.481481        1.0        0        
C1        C        0.230769        0.574075        1.0        0        
C2        C        0.269231        0.62963        1.0        0        
C3        C        0.230769        0.648148        1.0        0        
C4        C        0.269231        0.592592        1.0        0        
C1        C        0.307692        0.018519        1.0        0        
C2        C        0.346154        0.074075        1.0        0        
C3        C        0.307692        0.092592        1.0        0        
C4        C        0.346154        0.037037        1.0        0        
C1        C        0.307692        0.12963        1.0        0        
C2        C        0.346154        0.185185        1.0        0        
C3        C        0.307692        0.203703        1.0        0        
C4        C        0.346154        0.148148        1.0        0        
C1        C        0.307692        0.24074099999999998        1.0        0        
C2        C        0.346154        0.296297        1.0        0        
C3        C        0.307692        0.314815        1.0        0        
C4        C        0.346154        0.259259        1.0        0        
C1        C        0.307692        0.351852        1.0        0        
C2        C        0.346154        0.407408        1.0        0        
C3        C        0.307692        0.42592500000000005        1.0        0        
C4        C        0.346154        0.37037        1.0        0        
C1        C        0.307692        0.46296300000000007        1.0        0        
C2        C        0.346154        0.518519        1.0        0        
C3        C        0.307692        0.537037        1.0        0        
C4        C        0.346154        0.481481        1.0        0        
C1        C        0.307692        0.574075        1.0        0        
C2        C        0.346154        0.62963        1.0        0        
C3        C        0.307692        0.648148        1.0        0        
C4        C        0.346154        0.592592        1.0        0        
C1        C        0.384615        0.018519        1.0        0        
C2        C        0.423077        0.074075        1.0        0        
C3        C        0.384615        0.092592        1.0        0        
C4        C        0.423077        0.037037        1.0        0        
C1        C        0.384615        0.12963        1.0        0        
C2        C        0.423077        0.185185        1.0        0        
C3        C        0.384615        0.203703        1.0        0        
C4        C        0.423077        0.148148        1.0        0        
C1        C        0.384615        0.24074099999999998        1.0        0        
C2        C        0.423077        0.296297        1.0        0        
C3        C        0.384615        0.314815        1.0        0        
C4        C        0.423077        0.259259        1.0        0        
C1        C        0.384615        0.351852        1.0        0        
C2        C        0.423077        0.407408        1.0        0        
C3        C        0.384615        0.42592500000000005        1.0        0        
C4        C        0.423077        0.37037        1.0        0        
C1        C        0.384615        0.46296300000000007        1.0        0        
C2        C        0.423077        0.518519        1.0        0        
C3        C        0.384615        0.537037        1.0        0        
C4        C        0.423077        0.481481        1.0        0        
C1        C        0.384615        0.574075        1.0        0        
C2        C        0.423077        0.62963        1.0        0        
C3        C        0.384615        0.648148        1.0        0        
C4        C        0.423077        0.592592        1.0        0        
C1        C        0.461538        0.018519        1.0        0        
C2        C        0.5        0.074075        1.0        0        
C3        C        0.461538        0.092592        1.0        0        
C4        C        0.5        0.037037        1.0        0        
C1        C        0.461538        0.12963        1.0        0        
C2        C        0.5        0.185185        1.0        0        
C3        C        0.461538        0.203703        1.0        0        
C4        C        0.5        0.148148        1.0        0        
C1        C        0.461538        0.24074099999999998        1.0        0        
C2        C        0.5        0.296297        1.0        0        
C3        C        0.461538        0.314815        1.0        0        
C4        C        0.5        0.259259        1.0        0        
C1        C        0.461538        0.351852        1.0        0        
C2        C        0.5        0.407408        1.0        0        
C3        C        0.461538        0.42592500000000005        1.0        0        
C4        C        0.5        0.37037        1.0        0        
C1        C        0.461538        0.46296300000000007        1.0        0        
C2        C        0.5        0.518519        1.0        0        
C3        C        0.461538        0.537037        1.0        0        
C4        C        0.5        0.481481        1.0        0        
C1        C        0.461538        0.574075        1.0        0        
C2        C        0.5        0.62963        1.0        0        
C3        C        0.461538        0.648148        1.0        0        
C4        C        0.5        0.592592        1.0        0        
C1        C        0.538462        0.018519        1.0        0        
C2        C        0.576923        0.074075        1.0        0        
C3        C        0.538462        0.092592        1.0        0        
C4        C        0.576923        0.037037        1.0        0        
C1        C        0.538462        0.12963        1.0        0        
C2        C        0.576923        0.185185        1.0        0        
C3        C        0.538462        0.203703        1.0        0        
C4        C        0.576923        0.148148        1.0        0        
C1        C        0.538462        0.24074099999999998        1.0        0        
C2        C        0.576923        0.296297        1.0        0        
C3        C        0.538462        0.314815        1.0        0        
C4        C        0.576923        0.259259        1.0        0        
C1        C        0.538462        0.351852        1.0        0        
C2        C        0.576923        0.407408        1.0        0        
C3        C        0.538462        0.42592500000000005        1.0        0        
C4        C        0.576923        0.37037        1.0        0        
C1        C        0.538462        0.46296300000000007        1.0        0        
C2        C        0.576923        0.518519        1.0        0        
C3        C        0.538462        0.537037        1.0        0        
C4        C        0.576923        0.481481        1.0        0        
C1        C        0.538462        0.574075        1.0        0        
C2        C        0.576923        0.62963        1.0        0        
C3        C        0.538462        0.648148        1.0        0        
C4        C        0.576923        0.592592        1.0        0        
C1        C        0.615385        0.018519        1.0        0        
C2        C        0.653846        0.074075        1.0        0        
C3        C        0.615385        0.092592        1.0        0        
C4        C        0.653846        0.037037        1.0        0        
C1        C        0.615385        0.12963        1.0        0        
C2        C        0.653846        0.185185        1.0        0        
C3        C        0.615385        0.203703        1.0        0        
C4        C        0.653846        0.148148        1.0        0        
C1        C        0.615385        0.24074099999999998        1.0        0        
C2        C        0.653846        0.296297        1.0        0        
C3        C        0.615385        0.314815        1.0        0        
C4        C        0.653846        0.259259        1.0        0        
C1        C        0.615385        0.351852        1.0        0        
C2        C        0.653846        0.407408        1.0        0        
C3        C        0.615385        0.42592500000000005        1.0        0        
C4        C        0.653846        0.37037        1.0        0        
C1        C        0.615385        0.46296300000000007        1.0        0        
C2        C        0.653846        0.518519        1.0        0        
C3        C        0.615385        0.537037        1.0        0        
C4        C        0.653846        0.481481        1.0        0        
C1        C        0.615385        0.574075        1.0        0        
C2        C        0.653846        0.62963        1.0        0        
C3        C        0.615385        0.648148        1.0        0        
C4        C        0.653846        0.592592        1.0        0        
C1        C        0.692308        0.018519        1.0        0        
C2        C        0.730769        0.074075        1.0        0        
C3        C        0.692308        0.092592        1.0        0        
C4        C        0.730769        0.037037        1.0        0        
C1        C        0.692308        0.12963        1.0        0        
C2        C        0.730769        0.185185        1.0        0        
C3        C        0.692308        0.203703        1.0        0        
C4        C        0.730769        0.148148        1.0        0        
C1        C        0.692308        0.24074099999999998        1.0        0        
C2        C        0.730769        0.296297        1.0        0        
C3        C        0.692308        0.314815        1.0        0        
C4        C        0.730769        0.259259        1.0        0        
C1        C        0.692308        0.351852        1.0        0        
C2        C        0.730769        0.407408        1.0        0        
C3        C        0.692308        0.42592500000000005        1.0        0        
C4        C        0.730769        0.37037        1.0        0        
C1        C        0.692308        0.46296300000000007        1.0        0        
C2        C        0.730769        0.518519        1.0        0        
C3        C        0.692308        0.537037        1.0        0        
C4        C        0.730769        0.481481        1.0        0        
C1        C        0.692308        0.574075        1.0        0        
C2        C        0.730769        0.62963        1.0        0        
C3        C        0.692308        0.648148        1.0        0        
C4        C        0.730769        0.592592        1.0        0        
C1        C        0.769231        0.018519        1.0        0        
C2        C        0.807692        0.074075        1.0        0        
C3        C        0.769231        0.092592        1.0        0        
C4        C        0.807692        0.037037        1.0        0        
C1        C        0.769231        0.12963        1.0        0        
C2        C        0.807692        0.185185        1.0        0        
C3        C        0.769231        0.203703        1.0        0        
C4        C        0.807692        0.148148        1.0        0        
C1        C        0.769231        0.24074099999999998        1.0        0        
C2        C        0.807692        0.296297        1.0        0        
C3        C        0.769231        0.314815        1.0        0        
C4        C        0.807692        0.259259        1.0        0        
C1        C        0.769231        0.351852        1.0        0        
C2        C        0.807692        0.407408        1.0        0        
C3        C        0.769231        0.42592500000000005        1.0        0        
C4        C        0.807692        0.37037        1.0        0        
C1        C        0.769231        0.46296300000000007        1.0        0        
C2        C        0.807692        0.518519        1.0        0        
C3        C        0.769231        0.537037        1.0        0        
C4        C        0.807692        0.481481        1.0        0        
C1        C        0.769231        0.574075        1.0        0        
C2        C        0.807692        0.62963        1.0        0        
C3        C        0.769231        0.648148        1.0        0        
C4        C        0.807692        0.592592        1.0        0        
C1        C        0.846154        0.018519        1.0        0        
C2        C        0.884615        0.074075        1.0        0        
C3        C        0.846154        0.092592        1.0        0        
C4        C        0.884615        0.037037        1.0        0        
C1        C        0.846154        0.12963        1.0        0        
C2        C        0.884615        0.185185        1.0        0        
C3        C        0.846154        0.203703        1.0        0        
C4        C        0.884615        0.148148        1.0        0        
C1        C        0.846154        0.24074099999999998        1.0        0        
C2        C        0.884615        0.296297        1.0        0        
C3        C        0.846154        0.314815        1.0        0        
C4        C        0.884615        0.259259        1.0        0        
C1        C        0.846154        0.351852        1.0        0        
C2        C        0.884615        0.407408        1.0        0        
C3        C        0.846154        0.42592500000000005        1.0        0        
C4        C        0.884615        0.37037        1.0        0        
C1        C        0.846154        0.46296300000000007        1.0        0        
C2        C        0.884615        0.518519        1.0        0        
C3        C        0.846154        0.537037        1.0        0        
C4        C        0.884615        0.481481        1.0        0        
C1        C        0.846154        0.574075        1.0        0        
C2        C        0.884615        0.62963        1.0        0        
C3        C        0.846154        0.648148        1.0        0        
C4        C        0.884615        0.592592        1.0        0        
C1        C        0.923077        0.018519        1.0        0        
C2        C        0.961538        0.074075        1.0        0        
C3        C        0.923077        0.092592        1.0        0        
C4        C        0.961538        0.037037        1.0        0        
C1        C        0.923077        0.12963        1.0        0        
C2        C        0.961538        0.185185        1.0        0        
C3        C        0.923077        0.203703        1.0        0        
C4        C        0.961538        0.148148        1.0        0        
C1        C        0.923077        0.24074099999999998        1.0        0        
C2        C        0.961538        0.296297        1.0        0        
C3        C        0.923077        0.314815        1.0        0        
C4        C        0.961538        0.259259        1.0        0        
C1        C        0.923077        0.351852        1.0        0        
C2        C        0.961538        0.407408        1.0        0        
C3        C        0.923077        0.42592500000000005        1.0        0        
C4        C        0.961538        0.37037        1.0        0        
C1        C        0.923077        0.46296300000000007        1.0        0        
C2        C        0.961538        0.518519        1.0        0        
C3        C        0.923077        0.537037        1.0        0        
C4        C        0.961538        0.481481        1.0        0        
C1        C        0.923077        0.574075        1.0        0        
C2        C        0.961538        0.62963        1.0        0        
C3        C        0.923077        0.648148        1.0        0        
C4        C        0.961538        0.592592        1.0        0        
C1        C        1.0        0.018519        1.0        0        
C2        C        1.038462        0.074075        1.0        0        
C3        C        1.0        0.092592        1.0        0        
C4        C        1.038462        0.037037        1.0        0        
C1        C        1.0        0.12963        1.0        0        
C2        C        1.038462        0.185185        1.0        0        
C3        C        1.0        0.203703        1.0        0        
C4        C        1.038462        0.148148        1.0        0        
C1        C        1.0        0.24074099999999998        1.0        0        
C2        C        1.038462        0.296297        1.0        0        
C3        C        1.0        0.314815        1.0        0        
C4        C        1.038462        0.259259        1.0        0        
C1        C        1.0        0.351852        1.0        0        
C2        C        1.038462        0.407408        1.0        0        
C3        C        1.0        0.42592500000000005        1.0        0        
C4        C        1.038462        0.37037        1.0        0        
C1        C        1.0        0.46296300000000007        1.0        0        
C2        C        1.038462        0.518519        1.0        0        
C3        C        1.0        0.537037        1.0        0        
C4        C        1.038462        0.481481        1.0        0        
C1        C        1.0        0.574075        1.0        0        
C2        C        1.038462        0.62963        1.0        0        
C3        C        1.0        0.648148        1.0        0        
C4        C        1.038462        0.592592        1.0        0        
C1        C        0.0        0.685186        1.0        0        
C1        C        0.076923        0.685186        1.0        0        
C1        C        0.153846        0.685186        1.0        0        
C1        C        0.230769        0.685186        1.0        0        
C1        C        0.307692        0.685186        1.0        0        
C1        C        0.384615        0.685186        1.0        0        
C1        C        0.461538        0.685186        1.0        0        
C1        C        0.538462        0.685186        1.0        0        
C1        C        0.615385        0.685186        1.0        0        
C1        C        0.692308        0.685186        1.0        0        
C1        C        0.769231        0.685186        1.0        0        
C1        C        0.846154        0.685186        1.0        0        
C1        C        0.923077        0.685186        1.0        0        
C1        C        1.0        0.685186        1.0        0        
C2        C        0.038462        0.740741        1.0        0        
C2        C        0.115385        0.740741        1.0        0        
C2        C        0.192308        0.740741        1.0        0        
C2        C        0.269231        0.740741        1.0        0        
C2        C        0.346154        0.740741        1.0        0        
C2        C        0.423077        0.740741        1.0        0        
C2        C        0.5        0.740741        1.0        0        
C2        C        0.576923        0.740741        1.0        0        
C2        C        0.653846        0.740741        1.0        0        
C2        C        0.730769        0.740741        1.0        0        
C2        C        0.807692        0.740741        1.0        0        
C2        C        0.884615        0.740741        1.0        0        
C2        C        0.961538        0.740741        1.0        0        
C2        C        1.038462        0.740741        1.0        0        
C3        C        0.0        0.759259        1.0        0        
C3        C        0.076923        0.759259        1.0        0        
C3        C        0.153846        0.759259        1.0        0        
C3        C        0.230769        0.759259        1.0        0        
C3        C        0.307692        0.759259        1.0        0        
C3        C        0.384615        0.759259        1.0        0        
C3        C        0.461538        0.759259        1.0        0        
C3        C        0.538462        0.759259        1.0        0        
C3        C        0.615385        0.759259        1.0        0        
C3        C        0.692308        0.759259        1.0        0        
C3        C        0.769231        0.759259        1.0        0        
C3        C        0.846154        0.759259        1.0        0        
C3        C        0.923077        0.759259        1.0        0        
C3        C        1.0        0.759259        1.0        0        
C4        C        0.038462        0.703703        1.0        0        
C4        C        0.115385        0.703703        1.0        0        
C4        C        0.192308        0.703703        1.0        0        
C4        C        0.269231        0.703703        1.0        0        
C4        C        0.346154        0.703703        1.0        0        
C4        C        0.423077        0.703703        1.0        0        
C4        C        0.5        0.703703        1.0        0        
C4        C        0.576923        0.703703        1.0        0        
C4        C        0.653846        0.703703        1.0        0        
C4        C        0.730769        0.703703        1.0        0        
C4        C        0.807692        0.703703        1.0        0        
C4        C        0.884615        0.703703        1.0        0        
C4        C        0.961538        0.703703        1.0        0        
C4        C        1.038462        0.703703        1.0        0        
C1        C        0.0        0.796297        1.0        0        
C1        C        0.076923        0.796297        1.0        0        
C1        C        0.153846        0.796297        1.0        0        
C1        C        0.230769        0.796297        1.0        0        
C1        C        0.307692        0.796297        1.0        0        
C1        C        0.384615        0.796297        1.0        0        
C1        C        0.461538        0.796297        1.0        0        
C1        C        0.538462        0.796297        1.0        0        
C1        C        0.615385        0.796297        1.0        0        
C1        C        0.692308        0.796297        1.0        0        
C1        C        0.769231        0.796297        1.0        0        
C1        C        0.846154        0.796297        1.0        0        
C1        C        0.923077        0.796297        1.0        0        
C1        C        1.0        0.796297        1.0        0        
C2        C        0.038462        0.851852        1.0        0        
C2        C        0.115385        0.851852        1.0        0        
C2        C        0.192308        0.851852        1.0        0        
C2        C        0.269231        0.851852        1.0        0        
C2        C        0.346154        0.851852        1.0        0        
C2        C        0.423077        0.851852        1.0        0        
C2        C        0.5        0.851852        1.0        0        
C2        C        0.576923        0.851852        1.0        0        
C2        C        0.653846        0.851852        1.0        0        
C2        C        0.730769        0.851852        1.0        0        
C2        C        0.807692        0.851852        1.0        0        
C2        C        0.884615        0.851852        1.0        0        
C2        C        0.961538        0.851852        1.0        0        
C2        C        1.038462        0.851852        1.0        0        
C3        C        0.0        0.87037        1.0        0        
C3        C        0.076923        0.87037        1.0        0        
C3        C        0.153846        0.87037        1.0        0        
C3        C        0.230769        0.87037        1.0        0        
C3        C        0.307692        0.87037        1.0        0        
C3        C        0.384615        0.87037        1.0        0        
C3        C        0.461538        0.87037        1.0        0        
C3        C        0.538462        0.87037        1.0        0        
C3        C        0.615385        0.87037        1.0        0        
C3        C        0.692308        0.87037        1.0        0        
C3        C        0.769231        0.87037        1.0        0        
C3        C        0.846154        0.87037        1.0        0        
C3        C        0.923077        0.87037        1.0        0        
C3        C        1.0        0.87037        1.0        0        
C4        C        0.038462        0.814814        1.0        0        
C4        C        0.115385        0.814814        1.0        0        
C4        C        0.192308        0.814814        1.0        0        
C4        C        0.269231        0.814814        1.0        0        
C4        C        0.346154        0.814814        1.0        0        
C4        C        0.423077        0.814814        1.0        0        
C4        C        0.5        0.814814        1.0        0        
C4        C        0.576923        0.814814        1.0        0        
C4        C        0.653846        0.814814        1.0        0        
C4        C        0.730769        0.814814        1.0        0        
C4        C        0.807692        0.814814        1.0        0        
C4        C        0.884615        0.814814        1.0        0        
C4        C        0.961538        0.814814        1.0        0        
C4        C        1.038462        0.814814        1.0        0        
C1        C        0.0        0.907408        1.0        0        
C1        C        0.076923        0.907408        1.0        0        
C1        C        0.153846        0.907408        1.0        0        
C1        C        0.230769        0.907408        1.0        0        
C1        C        0.307692        0.907408        1.0        0        
C1        C        0.384615        0.907408        1.0        0        
C1        C        0.461538        0.907408        1.0        0        
C1        C        0.538462        0.907408        1.0        0        
C1        C        0.615385        0.907408        1.0        0        
C1        C        0.692308        0.907408        1.0        0        
C1        C        0.769231        0.907408        1.0        0        
C1        C        0.846154        0.907408        1.0        0        
C1        C        0.923077        0.907408        1.0        0        
C1        C        1.0        0.907408        1.0        0        
C2        C        0.038462        0.962963        1.0        0        
C2        C        0.115385        0.962963        1.0        0        
C2        C        0.192308        0.962963        1.0        0        
C2        C        0.269231        0.962963        1.0        0        
C2        C        0.346154        0.962963        1.0        0        
C2        C        0.423077        0.962963        1.0        0        
C2        C        0.5        0.962963        1.0        0        
C2        C        0.576923        0.962963        1.0        0        
C2        C        0.653846        0.962963        1.0        0        
C2        C        0.730769        0.962963        1.0        0        
C2        C        0.807692        0.962963        1.0        0        
C2        C        0.884615        0.962963        1.0        0        
C2        C        0.961538        0.962963        1.0        0        
C2        C        1.038462        0.962963        1.0        0        
C3        C        0.0        0.9814809999999999        1.0        0        
C3        C        0.076923        0.9814809999999999        1.0        0        
C3        C        0.153846        0.9814809999999999        1.0        0        
C3        C        0.230769        0.9814809999999999        1.0        0        
C3        C        0.307692        0.9814809999999999        1.0        0        
C3        C        0.384615        0.9814809999999999        1.0        0        
C3        C        0.461538        0.9814809999999999        1.0        0        
C3        C        0.538462        0.9814809999999999        1.0        0        
C3        C        0.615385        0.9814809999999999        1.0        0        
C3        C        0.692308        0.9814809999999999        1.0        0        
C3        C        0.769231        0.9814809999999999        1.0        0        
C3        C        0.846154        0.9814809999999999        1.0        0        
C3        C        0.923077        0.9814809999999999        1.0        0        
C3        C        1.0        0.9814809999999999        1.0        0        
C4        C        0.038462        0.925925        1.0        0        
C4        C        0.115385        0.925925        1.0        0        
C4        C        0.192308        0.925925        1.0        0        
C4        C        0.269231        0.925925        1.0        0        
C4        C        0.346154        0.925925        1.0        0        
C4        C        0.423077        0.925925        1.0        0        
C4        C        0.5        0.925925        1.0        0        
C4        C        0.576923        0.925925        1.0        0        
C4        C        0.653846        0.925925        1.0        0        
C4        C        0.730769        0.925925        1.0        0        
C4        C        0.807692        0.925925        1.0        0        
C4        C        0.884615        0.925925        1.0        0        
C4        C        0.961538        0.925925        1.0        0        
C4        C        1.038462        0.925925        1.0        0        
O_OH        O        0.076923        0.018519        0.28141868512110724        -0.64        
O_OH        O        0.076923        0.203703        0.28141868512110724        -0.64        
O_OH        O        0.076923        0.351852        0.28141868512110724        -0.64        
O_OH        O        0.076923        0.537037        0.28141868512110724        -0.64        
O_OH        O        0.230769        0.018519        0.28141868512110724        -0.64        
O_OH        O        0.230769        0.203703        0.28141868512110724        -0.64        
O_OH        O        0.230769        0.351852        0.28141868512110724        -0.64        
O_OH        O        0.230769        0.537037        0.28141868512110724        -0.64        
O_OH        O        0.846154        0.018519        0.28141868512110724        -0.64        
O_OH        O        0.846154        0.203703        0.28141868512110724        -0.64        
O_OH        O        0.846154        0.351852        0.28141868512110724        -0.64        
O_OH        O        0.846154        0.537037        0.28141868512110724        -0.64        
O_OH        O        1.0        0.018519        0.28141868512110724        -0.64        
O_OH        O        1.0        0.203703        0.28141868512110724        -0.64        
O_OH        O        1.0        0.351852        0.28141868512110724        -0.64        
O_OH        O        1.0        0.537037        0.28141868512110724        -0.64        
O_OH        O        0.076923        0.685186        0.28141868512110724        -0.64        
O_OH        O        0.230769        0.685186        0.28141868512110724        -0.64        
O_OH        O        0.846154        0.685186        0.28141868512110724        -0.64        
O_OH        O        1.0        0.685186        0.28141868512110724        -0.64        
O_OH        O        0.076923        0.87037        0.28141868512110724        -0.64        
O_OH        O        0.230769        0.87037        0.28141868512110724        -0.64        
O_OH        O        0.846154        0.87037        0.28141868512110724        -0.64        
O_OH        O        1.0        0.87037        0.28141868512110724        -0.64        
O_OH        O        0.076923        0.018519        0.7185813148788928        -0.64        
O_OH        O        0.076923        0.203703        0.7185813148788928        -0.64        
O_OH        O        0.076923        0.351852        0.7185813148788928        -0.64        
O_OH        O        0.076923        0.537037        0.7185813148788928        -0.64        
O_OH        O        0.230769        0.018519        0.7185813148788928        -0.64        
O_OH        O        0.230769        0.203703        0.7185813148788928        -0.64        
O_OH        O        0.230769        0.351852        0.7185813148788928        -0.64        
O_OH        O        0.230769        0.537037        0.7185813148788928        -0.64        
O_OH        O        0.846154        0.018519        0.7185813148788928        -0.64        
O_OH        O        0.846154        0.203703        0.7185813148788928        -0.64        
O_OH        O        0.846154        0.351852        0.7185813148788928        -0.64        
O_OH        O        0.846154        0.537037        0.7185813148788928        -0.64        
O_OH        O        1.0        0.018519        0.7185813148788928        -0.64        
O_OH        O        1.0        0.203703        0.7185813148788928        -0.64        
O_OH        O        1.0        0.351852        0.7185813148788928        -0.64        
O_OH        O        1.0        0.537037        0.7185813148788928        -0.64        
O_OH        O        0.076923        0.685186        0.7185813148788928        -0.64        
O_OH        O        0.230769        0.685186        0.7185813148788928        -0.64        
O_OH        O        0.846154        0.685186        0.7185813148788928        -0.64        
O_OH        O        1.0        0.685186        0.7185813148788928        -0.64        
O_OH        O        0.076923        0.87037        0.7185813148788928        -0.64        
O_OH        O        0.230769        0.87037        0.7185813148788928        -0.64        
O_OH        O        0.846154        0.87037        0.7185813148788928        -0.64        
O_OH        O        1.0        0.87037        0.7185813148788928        -0.64        
H_OH        H        0.07384835101753745        0.04183181000949127        0.29305186851211074        0.44        
H_OH        H        0.10483386348554764        0.20654278898362374        0.29305186851211074        0.44        
H_OH        H        0.08880118933648612        0.3731099429634655        0.29305186851211074        0.44        
H_OH        H        0.06787539989654338        0.5592431021567102        0.29305186851211074        0.44        
H_OH        H        0.25010240533041866        0.03554858700483938        0.29305186851211074        0.44        
H_OH        H        0.20285283882537664        0.2065063249396134        0.29305186851211074        0.44        
H_OH        H        0.21710311093410523        0.37234904012795916        0.29305186851211074        0.44        
H_OH        H        0.2587262282945165        0.5395394374220789        0.29305186851211074        0.44        
H_OH        H        0.8182187036791871        0.02118640803358971        0.29305186851211074        0.44        
H_OH        H        0.8184533117576733        0.2077274797327602        0.29305186851211074        0.44        
H_OH        H        0.8697493230418444        0.36460791874620363        0.29305186851211074        0.44        
H_OH        H        0.8515944182854474        0.560047246906205        0.29305186851211074        0.44        
H_OH        H        0.9728308220351499        0.024559463147981332        0.29305186851211074        0.44        
H_OH        H        0.9778956691025694        0.21819852685464866        0.29305186851211074        0.44        
H_OH        H        0.9720599803802514        0.35448476402335694        0.29305186851211074        0.44        
H_OH        H        0.9914694307517197        0.5593850258353179        0.29305186851211074        0.44        
H_OH        H        0.04894755787061141        0.687542565227989        0.29305186851211074        0.44        
H_OH        H        0.21867313460133297        0.7063583715677844        0.29305186851211074        0.44        
H_OH        H        0.8735929464012419        0.6903082780487433        0.29305186851211074        0.44        
H_OH        H        1.0203501008363176        0.7013704402975884        0.29305186851211074        0.44        
H_OH        H        0.09338346415178857        0.8893845545032278        0.29305186851211074        0.44        
H_OH        H        0.20514958270744163        0.8800346892763082        0.29305186851211074        0.44        
H_OH        H        0.8248721899735008        0.8856980399404621        0.29305186851211074        0.44        
H_OH        H        0.9750016946832407        0.8811068555747491        0.29305186851211074        0.44        
H_OH        H        0.0931450510816884        0.037675578973450745        0.7069481314878893        0.44        
H_OH        H        0.07278563309493233        0.22690116055855156        0.7069481314878893        0.44        
H_OH        H        0.10339527195960536        0.3597574677505107        0.7069481314878893        0.44        
H_OH        H        0.04903569409818343        0.5400334884325035        0.7069481314878893        0.44        
H_OH        H        0.21166298938004532        0.035726217130056255        0.7069481314878893        0.44        
H_OH        H        0.21077115653839198        0.2201901069036916        0.7069481314878893        0.44        
H_OH        H        0.22832145355085026        0.3752164276184052        0.7069481314878893        0.44        
H_OH        H        0.2582503494531907        0.5419986005444297        0.7069481314878893        0.44        
H_OH        H        0.8461074696198764        0.04197241863436965        0.7069481314878893        0.44        
H_OH        H        0.8256842262169812        0.2197820966439238        0.7069481314878893        0.44        
H_OH        H        0.857553509029781        0.37329150971883396        0.7069481314878893        0.44        
H_OH        H        0.8729234231980075        0.5442125896593504        0.7069481314878893        0.44        
H_OH        H        0.9966507707032002        0.04180547459528133        0.7069481314878893        0.44        
H_OH        H        1.0009547210077472        0.2271429270911525        0.7069481314878893        0.44        
H_OH        H        1.0207014746152236        0.36772336763073854        0.7069481314878893        0.44        
H_OH        H        1.027699406912025        0.5410676110511603        0.7069481314878893        0.44        
H_OH        H        0.09196550768951504        0.7050009511517734        0.7069481314878893        0.44        
H_OH        H        0.226305442464869        0.708342051055453        0.7069481314878893        0.44        
H_OH        H        0.8186977709953104        0.6902434354384817        0.7069481314878893        0.44        
H_OH        H        0.9730143208503792        0.6917739510933232        0.7069481314878893        0.44        
H_OH        H        0.09819717938092895        0.8857054080095291        0.7069481314878893        0.44        
H_OH        H        0.2543641158347675        0.8831261854105926        0.7069481314878893        0.44        
H_OH        H        0.8726501644607746        0.8782195806305456        0.7069481314878893        0.44        
H_OH        H        0.9853051040130448        0.8903656069367003        0.7069481314878893        0.44        
