data_graphite_ortho

_audit_creation_method RASPA-1.0
_audit_creation_date 2012-2-3
_audit_author_name 'David Dubbeldam'

_cell_length_a    39.36    
_cell_length_b    38.34    
_cell_length_c    15.6    
_cell_angle_alpha 90
_cell_angle_beta  90
_cell_angle_gamma 90
_cell_volume      23541.37      

_symmetry_cell_setting          triclinic
_symmetry_space_group_name_Hall 'P 1'
_symmetry_space_group_name_H-M  'P 1'
_symmetry_Int_Tables_number     1

_symmetry_equiv_pos_as_xyz 'x,y,z'

loop_
_atom_site_label
_atom_site_type_symbol
_atom_site_fract_x
_atom_site_fract_y
_atom_site_fract_z
_atom_site_charge
C_Base_OH        C        0.0        0.018519        0.11341019230769231        0.2        
C_Base_CO        C        0.03125        0.074075        0.11341019230769231        0.5        
C_Base_CO        C        0.0        0.092592        0.11341019230769231        0.5        
C_Base_OH        C        0.03125        0.037037        0.11341019230769231        0.2        
C_Base_CO        C        0.0        0.12963        0.11341019230769231        0.5        
C_Base_OH        C        0.03125        0.185185        0.11341019230769231        0.2        
C_Base_CO        C        0.0        0.203703        0.11341019230769231        0.5        
C_Base_CO        C        0.03125        0.148148        0.11341019230769231        0.5        
C_Base_OH        C        0.0        0.24074099999999998        0.11341019230769231        0.2        
C_Base_CO        C        0.03125        0.296297        0.11341019230769231        0.5        
C_Base_OH        C        0.0        0.314815        0.11341019230769231        0.2        
C_Base_CO        C        0.03125        0.259259        0.11341019230769231        0.5        
C_Base_CO        C        0.0        0.351852        0.11341019230769231        0.5        
C_Base_OH        C        0.03125        0.407408        0.11341019230769231        0.2        
C_Base_OH        C        0.0        0.42592500000000005        0.11341019230769231        0.2        
C_Base_OH        C        0.03125        0.37037        0.11341019230769231        0.2        
C_Base_CO        C        0.0        0.46296300000000007        0.11341019230769231        0.5        
C_Base_OH        C        0.03125        0.518519        0.11341019230769231        0.2        
C_Base_OH        C        0.0        0.537037        0.11341019230769231        0.2        
C_Base_OH        C        0.03125        0.481481        0.11341019230769231        0.2        
C_Base_OH        C        0.0        0.574075        0.11341019230769231        0.2        
C_Base_CO        C        0.03125        0.62963        0.11341019230769231        0.5        
C_Base_CO        C        0.0        0.648148        0.11341019230769231        0.5        
C_Base_CO        C        0.03125        0.592592        0.11341019230769231        0.5        
C_Base_OH        C        0.0625        0.018519        0.11341019230769231        0.2        
C_Base_CO        C        0.09375        0.074075        0.11341019230769231        0.5        
C_Base_CO        C        0.0625        0.092592        0.11341019230769231        0.5        
C_Base_OH        C        0.09375        0.037037        0.11341019230769231        0.2        
C_Base_CO        C        0.0625        0.12963        0.11341019230769231        0.5        
C_Base_OH        C        0.09375        0.185185        0.11341019230769231        0.2        
C_Base_CO        C        0.0625        0.203703        0.11341019230769231        0.5        
C_Base_CO        C        0.09375        0.148148        0.11341019230769231        0.5        
C_Base_OH        C        0.0625        0.24074099999999998        0.11341019230769231        0.2        
C_Base_CO        C        0.09375        0.296297        0.11341019230769231        0.5        
C_Base_OH        C        0.0625        0.314815        0.11341019230769231        0.2        
C_Base_CO        C        0.09375        0.259259        0.11341019230769231        0.5        
C_Base_CO        C        0.0625        0.351852        0.11341019230769231        0.5        
C_Base_OH        C        0.09375        0.407408        0.11341019230769231        0.2        
C_Base_OH        C        0.0625        0.42592500000000005        0.11341019230769231        0.2        
C_Base_OH        C        0.09375        0.37037        0.11341019230769231        0.2        
C_Base_CO        C        0.0625        0.46296300000000007        0.11341019230769231        0.5        
C_Base_OH        C        0.09375        0.518519        0.11341019230769231        0.2        
C_Base_OH        C        0.0625        0.537037        0.11341019230769231        0.2        
C_Base_OH        C        0.09375        0.481481        0.11341019230769231        0.2        
C_Base_OH        C        0.0625        0.574075        0.11341019230769231        0.2        
C_Base_CO        C        0.09375        0.62963        0.11341019230769231        0.5        
C_Base_CO        C        0.0625        0.648148        0.11341019230769231        0.5        
C_Base_CO        C        0.09375        0.592592        0.11341019230769231        0.5        
C1        C        0.125        0.018519        0.11341019230769231        0        
C2        C        0.15625        0.074075        0.11341019230769231        0        
C3        C        0.125        0.092592        0.11341019230769231        0        
C4        C        0.15625        0.037037        0.11341019230769231        0        
C1        C        0.125        0.12963        0.11341019230769231        0        
C2        C        0.15625        0.185185        0.11341019230769231        0        
C3        C        0.125        0.203703        0.11341019230769231        0        
C4        C        0.15625        0.148148        0.11341019230769231        0        
C1        C        0.125        0.24074099999999998        0.11341019230769231        0        
C2        C        0.15625        0.296297        0.11341019230769231        0        
C3        C        0.125        0.314815        0.11341019230769231        0        
C4        C        0.15625        0.259259        0.11341019230769231        0        
C1        C        0.125        0.351852        0.11341019230769231        0        
C2        C        0.15625        0.407408        0.11341019230769231        0        
C3        C        0.125        0.42592500000000005        0.11341019230769231        0        
C4        C        0.15625        0.37037        0.11341019230769231        0        
C1        C        0.125        0.46296300000000007        0.11341019230769231        0        
C2        C        0.15625        0.518519        0.11341019230769231        0        
C3        C        0.125        0.537037        0.11341019230769231        0        
C4        C        0.15625        0.481481        0.11341019230769231        0        
C1        C        0.125        0.574075        0.11341019230769231        0        
C2        C        0.15625        0.62963        0.11341019230769231        0        
C3        C        0.125        0.648148        0.11341019230769231        0        
C4        C        0.15625        0.592592        0.11341019230769231        0        
C1        C        0.1875        0.018519        0.11341019230769231        0        
C2        C        0.21875        0.074075        0.11341019230769231        0        
C3        C        0.1875        0.092592        0.11341019230769231        0        
C4        C        0.21875        0.037037        0.11341019230769231        0        
C1        C        0.1875        0.12963        0.11341019230769231        0        
C2        C        0.21875        0.185185        0.11341019230769231        0        
C3        C        0.1875        0.203703        0.11341019230769231        0        
C4        C        0.21875        0.148148        0.11341019230769231        0        
C1        C        0.1875        0.24074099999999998        0.11341019230769231        0        
C2        C        0.21875        0.296297        0.11341019230769231        0        
C3        C        0.1875        0.314815        0.11341019230769231        0        
C4        C        0.21875        0.259259        0.11341019230769231        0        
C1        C        0.1875        0.351852        0.11341019230769231        0        
C2        C        0.21875        0.407408        0.11341019230769231        0        
C3        C        0.1875        0.42592500000000005        0.11341019230769231        0        
C4        C        0.21875        0.37037        0.11341019230769231        0        
C1        C        0.1875        0.46296300000000007        0.11341019230769231        0        
C2        C        0.21875        0.518519        0.11341019230769231        0        
C3        C        0.1875        0.537037        0.11341019230769231        0        
C4        C        0.21875        0.481481        0.11341019230769231        0        
C1        C        0.1875        0.574075        0.11341019230769231        0        
C2        C        0.21875        0.62963        0.11341019230769231        0        
C3        C        0.1875        0.648148        0.11341019230769231        0        
C4        C        0.21875        0.592592        0.11341019230769231        0        
C1        C        0.25        0.018519        0.11341019230769231        0        
C2        C        0.28125        0.074075        0.11341019230769231        0        
C3        C        0.25        0.092592        0.11341019230769231        0        
C4        C        0.28125        0.037037        0.11341019230769231        0        
C1        C        0.25        0.12963        0.11341019230769231        0        
C2        C        0.28125        0.185185        0.11341019230769231        0        
C3        C        0.25        0.203703        0.11341019230769231        0        
C4        C        0.28125        0.148148        0.11341019230769231        0        
C1        C        0.25        0.24074099999999998        0.11341019230769231        0        
C2        C        0.28125        0.296297        0.11341019230769231        0        
C3        C        0.25        0.314815        0.11341019230769231        0        
C4        C        0.28125        0.259259        0.11341019230769231        0        
C1        C        0.25        0.351852        0.11341019230769231        0        
C2        C        0.28125        0.407408        0.11341019230769231        0        
C3        C        0.25        0.42592500000000005        0.11341019230769231        0        
C4        C        0.28125        0.37037        0.11341019230769231        0        
C1        C        0.25        0.46296300000000007        0.11341019230769231        0        
C2        C        0.28125        0.518519        0.11341019230769231        0        
C3        C        0.25        0.537037        0.11341019230769231        0        
C4        C        0.28125        0.481481        0.11341019230769231        0        
C1        C        0.25        0.574075        0.11341019230769231        0        
C2        C        0.28125        0.62963        0.11341019230769231        0        
C3        C        0.25        0.648148        0.11341019230769231        0        
C4        C        0.28125        0.592592        0.11341019230769231        0        
C1        C        0.3125        0.018519        0.11341019230769231        0        
C2        C        0.34375        0.074075        0.11341019230769231        0        
C3        C        0.3125        0.092592        0.11341019230769231        0        
C4        C        0.34375        0.037037        0.11341019230769231        0        
C1        C        0.3125        0.12963        0.11341019230769231        0        
C2        C        0.34375        0.185185        0.11341019230769231        0        
C3        C        0.3125        0.203703        0.11341019230769231        0        
C4        C        0.34375        0.148148        0.11341019230769231        0        
C1        C        0.3125        0.24074099999999998        0.11341019230769231        0        
C2        C        0.34375        0.296297        0.11341019230769231        0        
C3        C        0.3125        0.314815        0.11341019230769231        0        
C4        C        0.34375        0.259259        0.11341019230769231        0        
C1        C        0.3125        0.351852        0.11341019230769231        0        
C2        C        0.34375        0.407408        0.11341019230769231        0        
C3        C        0.3125        0.42592500000000005        0.11341019230769231        0        
C4        C        0.34375        0.37037        0.11341019230769231        0        
C1        C        0.3125        0.46296300000000007        0.11341019230769231        0        
C2        C        0.34375        0.518519        0.11341019230769231        0        
C3        C        0.3125        0.537037        0.11341019230769231        0        
C4        C        0.34375        0.481481        0.11341019230769231        0        
C1        C        0.3125        0.574075        0.11341019230769231        0        
C2        C        0.34375        0.62963        0.11341019230769231        0        
C3        C        0.3125        0.648148        0.11341019230769231        0        
C4        C        0.34375        0.592592        0.11341019230769231        0        
C1        C        0.375        0.018519        0.11341019230769231        0        
C2        C        0.40625        0.074075        0.11341019230769231        0        
C3        C        0.375        0.092592        0.11341019230769231        0        
C4        C        0.40625        0.037037        0.11341019230769231        0        
C1        C        0.375        0.12963        0.11341019230769231        0        
C2        C        0.40625        0.185185        0.11341019230769231        0        
C3        C        0.375        0.203703        0.11341019230769231        0        
C4        C        0.40625        0.148148        0.11341019230769231        0        
C1        C        0.375        0.24074099999999998        0.11341019230769231        0        
C2        C        0.40625        0.296297        0.11341019230769231        0        
C3        C        0.375        0.314815        0.11341019230769231        0        
C4        C        0.40625        0.259259        0.11341019230769231        0        
C1        C        0.375        0.351852        0.11341019230769231        0        
C2        C        0.40625        0.407408        0.11341019230769231        0        
C3        C        0.375        0.42592500000000005        0.11341019230769231        0        
C4        C        0.40625        0.37037        0.11341019230769231        0        
C1        C        0.375        0.46296300000000007        0.11341019230769231        0        
C2        C        0.40625        0.518519        0.11341019230769231        0        
C3        C        0.375        0.537037        0.11341019230769231        0        
C4        C        0.40625        0.481481        0.11341019230769231        0        
C1        C        0.375        0.574075        0.11341019230769231        0        
C2        C        0.40625        0.62963        0.11341019230769231        0        
C3        C        0.375        0.648148        0.11341019230769231        0        
C4        C        0.40625        0.592592        0.11341019230769231        0        
C1        C        0.4375        0.018519        0.11341019230769231        0        
C2        C        0.46875        0.074075        0.11341019230769231        0        
C3        C        0.4375        0.092592        0.11341019230769231        0        
C4        C        0.46875        0.037037        0.11341019230769231        0        
C1        C        0.4375        0.12963        0.11341019230769231        0        
C2        C        0.46875        0.185185        0.11341019230769231        0        
C3        C        0.4375        0.203703        0.11341019230769231        0        
C4        C        0.46875        0.148148        0.11341019230769231        0        
C1        C        0.4375        0.24074099999999998        0.11341019230769231        0        
C2        C        0.46875        0.296297        0.11341019230769231        0        
C3        C        0.4375        0.314815        0.11341019230769231        0        
C4        C        0.46875        0.259259        0.11341019230769231        0        
C1        C        0.4375        0.351852        0.11341019230769231        0        
C2        C        0.46875        0.407408        0.11341019230769231        0        
C3        C        0.4375        0.42592500000000005        0.11341019230769231        0        
C4        C        0.46875        0.37037        0.11341019230769231        0        
C1        C        0.4375        0.46296300000000007        0.11341019230769231        0        
C2        C        0.46875        0.518519        0.11341019230769231        0        
C3        C        0.4375        0.537037        0.11341019230769231        0        
C4        C        0.46875        0.481481        0.11341019230769231        0        
C1        C        0.4375        0.574075        0.11341019230769231        0        
C2        C        0.46875        0.62963        0.11341019230769231        0        
C3        C        0.4375        0.648148        0.11341019230769231        0        
C4        C        0.46875        0.592592        0.11341019230769231        0        
C1        C        0.5        0.018519        0.11341019230769231        0        
C2        C        0.53125        0.074075        0.11341019230769231        0        
C3        C        0.5        0.092592        0.11341019230769231        0        
C4        C        0.53125        0.037037        0.11341019230769231        0        
C1        C        0.5        0.12963        0.11341019230769231        0        
C2        C        0.53125        0.185185        0.11341019230769231        0        
C3        C        0.5        0.203703        0.11341019230769231        0        
C4        C        0.53125        0.148148        0.11341019230769231        0        
C1        C        0.5        0.24074099999999998        0.11341019230769231        0        
C2        C        0.53125        0.296297        0.11341019230769231        0        
C3        C        0.5        0.314815        0.11341019230769231        0        
C4        C        0.53125        0.259259        0.11341019230769231        0        
C1        C        0.5        0.351852        0.11341019230769231        0        
C2        C        0.53125        0.407408        0.11341019230769231        0        
C3        C        0.5        0.42592500000000005        0.11341019230769231        0        
C4        C        0.53125        0.37037        0.11341019230769231        0        
C1        C        0.5        0.46296300000000007        0.11341019230769231        0        
C2        C        0.53125        0.518519        0.11341019230769231        0        
C3        C        0.5        0.537037        0.11341019230769231        0        
C4        C        0.53125        0.481481        0.11341019230769231        0        
C1        C        0.5        0.574075        0.11341019230769231        0        
C2        C        0.53125        0.62963        0.11341019230769231        0        
C3        C        0.5        0.648148        0.11341019230769231        0        
C4        C        0.53125        0.592592        0.11341019230769231        0        
C1        C        0.5625        0.018519        0.11341019230769231        0        
C2        C        0.59375        0.074075        0.11341019230769231        0        
C3        C        0.5625        0.092592        0.11341019230769231        0        
C4        C        0.59375        0.037037        0.11341019230769231        0        
C1        C        0.5625        0.12963        0.11341019230769231        0        
C2        C        0.59375        0.185185        0.11341019230769231        0        
C3        C        0.5625        0.203703        0.11341019230769231        0        
C4        C        0.59375        0.148148        0.11341019230769231        0        
C1        C        0.5625        0.24074099999999998        0.11341019230769231        0        
C2        C        0.59375        0.296297        0.11341019230769231        0        
C3        C        0.5625        0.314815        0.11341019230769231        0        
C4        C        0.59375        0.259259        0.11341019230769231        0        
C1        C        0.5625        0.351852        0.11341019230769231        0        
C2        C        0.59375        0.407408        0.11341019230769231        0        
C3        C        0.5625        0.42592500000000005        0.11341019230769231        0        
C4        C        0.59375        0.37037        0.11341019230769231        0        
C1        C        0.5625        0.46296300000000007        0.11341019230769231        0        
C2        C        0.59375        0.518519        0.11341019230769231        0        
C3        C        0.5625        0.537037        0.11341019230769231        0        
C4        C        0.59375        0.481481        0.11341019230769231        0        
C1        C        0.5625        0.574075        0.11341019230769231        0        
C2        C        0.59375        0.62963        0.11341019230769231        0        
C3        C        0.5625        0.648148        0.11341019230769231        0        
C4        C        0.59375        0.592592        0.11341019230769231        0        
C1        C        0.625        0.018519        0.11341019230769231        0        
C2        C        0.65625        0.074075        0.11341019230769231        0        
C3        C        0.625        0.092592        0.11341019230769231        0        
C4        C        0.65625        0.037037        0.11341019230769231        0        
C1        C        0.625        0.12963        0.11341019230769231        0        
C2        C        0.65625        0.185185        0.11341019230769231        0        
C3        C        0.625        0.203703        0.11341019230769231        0        
C4        C        0.65625        0.148148        0.11341019230769231        0        
C1        C        0.625        0.24074099999999998        0.11341019230769231        0        
C2        C        0.65625        0.296297        0.11341019230769231        0        
C3        C        0.625        0.314815        0.11341019230769231        0        
C4        C        0.65625        0.259259        0.11341019230769231        0        
C1        C        0.625        0.351852        0.11341019230769231        0        
C2        C        0.65625        0.407408        0.11341019230769231        0        
C3        C        0.625        0.42592500000000005        0.11341019230769231        0        
C4        C        0.65625        0.37037        0.11341019230769231        0        
C1        C        0.625        0.46296300000000007        0.11341019230769231        0        
C2        C        0.65625        0.518519        0.11341019230769231        0        
C3        C        0.625        0.537037        0.11341019230769231        0        
C4        C        0.65625        0.481481        0.11341019230769231        0        
C1        C        0.625        0.574075        0.11341019230769231        0        
C2        C        0.65625        0.62963        0.11341019230769231        0        
C3        C        0.625        0.648148        0.11341019230769231        0        
C4        C        0.65625        0.592592        0.11341019230769231        0        
C1        C        0.6875        0.018519        0.11341019230769231        0        
C2        C        0.71875        0.074075        0.11341019230769231        0        
C3        C        0.6875        0.092592        0.11341019230769231        0        
C4        C        0.71875        0.037037        0.11341019230769231        0        
C1        C        0.6875        0.12963        0.11341019230769231        0        
C2        C        0.71875        0.185185        0.11341019230769231        0        
C3        C        0.6875        0.203703        0.11341019230769231        0        
C4        C        0.71875        0.148148        0.11341019230769231        0        
C1        C        0.6875        0.24074099999999998        0.11341019230769231        0        
C2        C        0.71875        0.296297        0.11341019230769231        0        
C3        C        0.6875        0.314815        0.11341019230769231        0        
C4        C        0.71875        0.259259        0.11341019230769231        0        
C1        C        0.6875        0.351852        0.11341019230769231        0        
C2        C        0.71875        0.407408        0.11341019230769231        0        
C3        C        0.6875        0.42592500000000005        0.11341019230769231        0        
C4        C        0.71875        0.37037        0.11341019230769231        0        
C1        C        0.6875        0.46296300000000007        0.11341019230769231        0        
C2        C        0.71875        0.518519        0.11341019230769231        0        
C3        C        0.6875        0.537037        0.11341019230769231        0        
C4        C        0.71875        0.481481        0.11341019230769231        0        
C1        C        0.6875        0.574075        0.11341019230769231        0        
C2        C        0.71875        0.62963        0.11341019230769231        0        
C3        C        0.6875        0.648148        0.11341019230769231        0        
C4        C        0.71875        0.592592        0.11341019230769231        0        
C1        C        0.75        0.018519        0.11341019230769231        0        
C2        C        0.78125        0.074075        0.11341019230769231        0        
C3        C        0.75        0.092592        0.11341019230769231        0        
C4        C        0.78125        0.037037        0.11341019230769231        0        
C1        C        0.75        0.12963        0.11341019230769231        0        
C2        C        0.78125        0.185185        0.11341019230769231        0        
C3        C        0.75        0.203703        0.11341019230769231        0        
C4        C        0.78125        0.148148        0.11341019230769231        0        
C1        C        0.75        0.24074099999999998        0.11341019230769231        0        
C2        C        0.78125        0.296297        0.11341019230769231        0        
C3        C        0.75        0.314815        0.11341019230769231        0        
C4        C        0.78125        0.259259        0.11341019230769231        0        
C1        C        0.75        0.351852        0.11341019230769231        0        
C2        C        0.78125        0.407408        0.11341019230769231        0        
C3        C        0.75        0.42592500000000005        0.11341019230769231        0        
C4        C        0.78125        0.37037        0.11341019230769231        0        
C1        C        0.75        0.46296300000000007        0.11341019230769231        0        
C2        C        0.78125        0.518519        0.11341019230769231        0        
C3        C        0.75        0.537037        0.11341019230769231        0        
C4        C        0.78125        0.481481        0.11341019230769231        0        
C1        C        0.75        0.574075        0.11341019230769231        0        
C2        C        0.78125        0.62963        0.11341019230769231        0        
C3        C        0.75        0.648148        0.11341019230769231        0        
C4        C        0.78125        0.592592        0.11341019230769231        0        
C1        C        0.8125        0.018519        0.11341019230769231        0        
C2        C        0.84375        0.074075        0.11341019230769231        0        
C3        C        0.8125        0.092592        0.11341019230769231        0        
C4        C        0.84375        0.037037        0.11341019230769231        0        
C1        C        0.8125        0.12963        0.11341019230769231        0        
C2        C        0.84375        0.185185        0.11341019230769231        0        
C3        C        0.8125        0.203703        0.11341019230769231        0        
C4        C        0.84375        0.148148        0.11341019230769231        0        
C1        C        0.8125        0.24074099999999998        0.11341019230769231        0        
C2        C        0.84375        0.296297        0.11341019230769231        0        
C3        C        0.8125        0.314815        0.11341019230769231        0        
C4        C        0.84375        0.259259        0.11341019230769231        0        
C1        C        0.8125        0.351852        0.11341019230769231        0        
C2        C        0.84375        0.407408        0.11341019230769231        0        
C3        C        0.8125        0.42592500000000005        0.11341019230769231        0        
C4        C        0.84375        0.37037        0.11341019230769231        0        
C1        C        0.8125        0.46296300000000007        0.11341019230769231        0        
C2        C        0.84375        0.518519        0.11341019230769231        0        
C3        C        0.8125        0.537037        0.11341019230769231        0        
C4        C        0.84375        0.481481        0.11341019230769231        0        
C1        C        0.8125        0.574075        0.11341019230769231        0        
C2        C        0.84375        0.62963        0.11341019230769231        0        
C3        C        0.8125        0.648148        0.11341019230769231        0        
C4        C        0.84375        0.592592        0.11341019230769231        0        
C1        C        0.875        0.018519        0.11341019230769231        0        
C2        C        0.9062500000000001        0.074075        0.11341019230769231        0        
C3        C        0.875        0.092592        0.11341019230769231        0        
C4        C        0.9062500000000001        0.037037        0.11341019230769231        0        
C1        C        0.875        0.12963        0.11341019230769231        0        
C2        C        0.9062500000000001        0.185185        0.11341019230769231        0        
C3        C        0.875        0.203703        0.11341019230769231        0        
C4        C        0.9062500000000001        0.148148        0.11341019230769231        0        
C1        C        0.875        0.24074099999999998        0.11341019230769231        0        
C2        C        0.9062500000000001        0.296297        0.11341019230769231        0        
C3        C        0.875        0.314815        0.11341019230769231        0        
C4        C        0.9062500000000001        0.259259        0.11341019230769231        0        
C1        C        0.875        0.351852        0.11341019230769231        0        
C2        C        0.9062500000000001        0.407408        0.11341019230769231        0        
C3        C        0.875        0.42592500000000005        0.11341019230769231        0        
C4        C        0.9062500000000001        0.37037        0.11341019230769231        0        
C1        C        0.875        0.46296300000000007        0.11341019230769231        0        
C2        C        0.9062500000000001        0.518519        0.11341019230769231        0        
C3        C        0.875        0.537037        0.11341019230769231        0        
C4        C        0.9062500000000001        0.481481        0.11341019230769231        0        
C1        C        0.875        0.574075        0.11341019230769231        0        
C2        C        0.9062500000000001        0.62963        0.11341019230769231        0        
C3        C        0.875        0.648148        0.11341019230769231        0        
C4        C        0.9062500000000001        0.592592        0.11341019230769231        0        
C1        C        0.9375        0.018519        0.11341019230769231        0        
C2        C        0.9687500000000001        0.074075        0.11341019230769231        0        
C3        C        0.9375        0.092592        0.11341019230769231        0        
C4        C        0.9687500000000001        0.037037        0.11341019230769231        0        
C1        C        0.9375        0.12963        0.11341019230769231        0        
C2        C        0.9687500000000001        0.185185        0.11341019230769231        0        
C3        C        0.9375        0.203703        0.11341019230769231        0        
C4        C        0.9687500000000001        0.148148        0.11341019230769231        0        
C1        C        0.9375        0.24074099999999998        0.11341019230769231        0        
C2        C        0.9687500000000001        0.296297        0.11341019230769231        0        
C3        C        0.9375        0.314815        0.11341019230769231        0        
C4        C        0.9687500000000001        0.259259        0.11341019230769231        0        
C1        C        0.9375        0.351852        0.11341019230769231        0        
C2        C        0.9687500000000001        0.407408        0.11341019230769231        0        
C3        C        0.9375        0.42592500000000005        0.11341019230769231        0        
C4        C        0.9687500000000001        0.37037        0.11341019230769231        0        
C1        C        0.9375        0.46296300000000007        0.11341019230769231        0        
C2        C        0.9687500000000001        0.518519        0.11341019230769231        0        
C3        C        0.9375        0.537037        0.11341019230769231        0        
C4        C        0.9687500000000001        0.481481        0.11341019230769231        0        
C1        C        0.9375        0.574075        0.11341019230769231        0        
C2        C        0.9687500000000001        0.62963        0.11341019230769231        0        
C3        C        0.9375        0.648148        0.11341019230769231        0        
C4        C        0.9687500000000001        0.592592        0.11341019230769231        0        
C1        C        0.0        0.685186        0.11341019230769231        0        
C1        C        0.0625        0.685186        0.11341019230769231        0        
C1        C        0.125        0.685186        0.11341019230769231        0        
C1        C        0.1875        0.685186        0.11341019230769231        0        
C1        C        0.25        0.685186        0.11341019230769231        0        
C1        C        0.3125        0.685186        0.11341019230769231        0        
C1        C        0.375        0.685186        0.11341019230769231        0        
C1        C        0.4375        0.685186        0.11341019230769231        0        
C1        C        0.5        0.685186        0.11341019230769231        0        
C1        C        0.5625        0.685186        0.11341019230769231        0        
C1        C        0.625        0.685186        0.11341019230769231        0        
C1        C        0.6875        0.685186        0.11341019230769231        0        
C1        C        0.75        0.685186        0.11341019230769231        0        
C1        C        0.8125        0.685186        0.11341019230769231        0        
C1        C        0.875        0.685186        0.11341019230769231        0        
C1        C        0.9375        0.685186        0.11341019230769231        0        
C2        C        0.03125        0.740741        0.11341019230769231        0        
C2        C        0.09375        0.740741        0.11341019230769231        0        
C2        C        0.15625        0.740741        0.11341019230769231        0        
C2        C        0.21875        0.740741        0.11341019230769231        0        
C2        C        0.28125        0.740741        0.11341019230769231        0        
C2        C        0.34375        0.740741        0.11341019230769231        0        
C2        C        0.40625        0.740741        0.11341019230769231        0        
C2        C        0.46875        0.740741        0.11341019230769231        0        
C2        C        0.53125        0.740741        0.11341019230769231        0        
C2        C        0.59375        0.740741        0.11341019230769231        0        
C2        C        0.65625        0.740741        0.11341019230769231        0        
C2        C        0.71875        0.740741        0.11341019230769231        0        
C2        C        0.78125        0.740741        0.11341019230769231        0        
C2        C        0.84375        0.740741        0.11341019230769231        0        
C2        C        0.9062500000000001        0.740741        0.11341019230769231        0        
C2        C        0.9687500000000001        0.740741        0.11341019230769231        0        
C3        C        0.0        0.759259        0.11341019230769231        0        
C3        C        0.0625        0.759259        0.11341019230769231        0        
C3        C        0.125        0.759259        0.11341019230769231        0        
C3        C        0.1875        0.759259        0.11341019230769231        0        
C3        C        0.25        0.759259        0.11341019230769231        0        
C3        C        0.3125        0.759259        0.11341019230769231        0        
C3        C        0.375        0.759259        0.11341019230769231        0        
C3        C        0.4375        0.759259        0.11341019230769231        0        
C3        C        0.5        0.759259        0.11341019230769231        0        
C3        C        0.5625        0.759259        0.11341019230769231        0        
C3        C        0.625        0.759259        0.11341019230769231        0        
C3        C        0.6875        0.759259        0.11341019230769231        0        
C3        C        0.75        0.759259        0.11341019230769231        0        
C3        C        0.8125        0.759259        0.11341019230769231        0        
C3        C        0.875        0.759259        0.11341019230769231        0        
C3        C        0.9375        0.759259        0.11341019230769231        0        
C4        C        0.03125        0.703703        0.11341019230769231        0        
C4        C        0.09375        0.703703        0.11341019230769231        0        
C4        C        0.15625        0.703703        0.11341019230769231        0        
C4        C        0.21875        0.703703        0.11341019230769231        0        
C4        C        0.28125        0.703703        0.11341019230769231        0        
C4        C        0.34375        0.703703        0.11341019230769231        0        
C4        C        0.40625        0.703703        0.11341019230769231        0        
C4        C        0.46875        0.703703        0.11341019230769231        0        
C4        C        0.53125        0.703703        0.11341019230769231        0        
C4        C        0.59375        0.703703        0.11341019230769231        0        
C4        C        0.65625        0.703703        0.11341019230769231        0        
C4        C        0.71875        0.703703        0.11341019230769231        0        
C4        C        0.78125        0.703703        0.11341019230769231        0        
C4        C        0.84375        0.703703        0.11341019230769231        0        
C4        C        0.9062500000000001        0.703703        0.11341019230769231        0        
C4        C        0.9687500000000001        0.703703        0.11341019230769231        0        
C1        C        0.0        0.796297        0.11341019230769231        0        
C1        C        0.0625        0.796297        0.11341019230769231        0        
C1        C        0.125        0.796297        0.11341019230769231        0        
C1        C        0.1875        0.796297        0.11341019230769231        0        
C1        C        0.25        0.796297        0.11341019230769231        0        
C1        C        0.3125        0.796297        0.11341019230769231        0        
C1        C        0.375        0.796297        0.11341019230769231        0        
C1        C        0.4375        0.796297        0.11341019230769231        0        
C1        C        0.5        0.796297        0.11341019230769231        0        
C1        C        0.5625        0.796297        0.11341019230769231        0        
C1        C        0.625        0.796297        0.11341019230769231        0        
C1        C        0.6875        0.796297        0.11341019230769231        0        
C1        C        0.75        0.796297        0.11341019230769231        0        
C1        C        0.8125        0.796297        0.11341019230769231        0        
C1        C        0.875        0.796297        0.11341019230769231        0        
C1        C        0.9375        0.796297        0.11341019230769231        0        
C2        C        0.03125        0.851852        0.11341019230769231        0        
C2        C        0.09375        0.851852        0.11341019230769231        0        
C2        C        0.15625        0.851852        0.11341019230769231        0        
C2        C        0.21875        0.851852        0.11341019230769231        0        
C2        C        0.28125        0.851852        0.11341019230769231        0        
C2        C        0.34375        0.851852        0.11341019230769231        0        
C2        C        0.40625        0.851852        0.11341019230769231        0        
C2        C        0.46875        0.851852        0.11341019230769231        0        
C2        C        0.53125        0.851852        0.11341019230769231        0        
C2        C        0.59375        0.851852        0.11341019230769231        0        
C2        C        0.65625        0.851852        0.11341019230769231        0        
C2        C        0.71875        0.851852        0.11341019230769231        0        
C2        C        0.78125        0.851852        0.11341019230769231        0        
C2        C        0.84375        0.851852        0.11341019230769231        0        
C2        C        0.9062500000000001        0.851852        0.11341019230769231        0        
C2        C        0.9687500000000001        0.851852        0.11341019230769231        0        
C3        C        0.0        0.87037        0.11341019230769231        0        
C3        C        0.0625        0.87037        0.11341019230769231        0        
C3        C        0.125        0.87037        0.11341019230769231        0        
C3        C        0.1875        0.87037        0.11341019230769231        0        
C3        C        0.25        0.87037        0.11341019230769231        0        
C3        C        0.3125        0.87037        0.11341019230769231        0        
C3        C        0.375        0.87037        0.11341019230769231        0        
C3        C        0.4375        0.87037        0.11341019230769231        0        
C3        C        0.5        0.87037        0.11341019230769231        0        
C3        C        0.5625        0.87037        0.11341019230769231        0        
C3        C        0.625        0.87037        0.11341019230769231        0        
C3        C        0.6875        0.87037        0.11341019230769231        0        
C3        C        0.75        0.87037        0.11341019230769231        0        
C3        C        0.8125        0.87037        0.11341019230769231        0        
C3        C        0.875        0.87037        0.11341019230769231        0        
C3        C        0.9375        0.87037        0.11341019230769231        0        
C4        C        0.03125        0.814814        0.11341019230769231        0        
C4        C        0.09375        0.814814        0.11341019230769231        0        
C4        C        0.15625        0.814814        0.11341019230769231        0        
C4        C        0.21875        0.814814        0.11341019230769231        0        
C4        C        0.28125        0.814814        0.11341019230769231        0        
C4        C        0.34375        0.814814        0.11341019230769231        0        
C4        C        0.40625        0.814814        0.11341019230769231        0        
C4        C        0.46875        0.814814        0.11341019230769231        0        
C4        C        0.53125        0.814814        0.11341019230769231        0        
C4        C        0.59375        0.814814        0.11341019230769231        0        
C4        C        0.65625        0.814814        0.11341019230769231        0        
C4        C        0.71875        0.814814        0.11341019230769231        0        
C4        C        0.78125        0.814814        0.11341019230769231        0        
C4        C        0.84375        0.814814        0.11341019230769231        0        
C4        C        0.9062500000000001        0.814814        0.11341019230769231        0        
C4        C        0.9687500000000001        0.814814        0.11341019230769231        0        
C1        C        0.0        0.907408        0.11341019230769231        0        
C1        C        0.0625        0.907408        0.11341019230769231        0        
C1        C        0.125        0.907408        0.11341019230769231        0        
C1        C        0.1875        0.907408        0.11341019230769231        0        
C1        C        0.25        0.907408        0.11341019230769231        0        
C1        C        0.3125        0.907408        0.11341019230769231        0        
C1        C        0.375        0.907408        0.11341019230769231        0        
C1        C        0.4375        0.907408        0.11341019230769231        0        
C1        C        0.5        0.907408        0.11341019230769231        0        
C1        C        0.5625        0.907408        0.11341019230769231        0        
C1        C        0.625        0.907408        0.11341019230769231        0        
C1        C        0.6875        0.907408        0.11341019230769231        0        
C1        C        0.75        0.907408        0.11341019230769231        0        
C1        C        0.8125        0.907408        0.11341019230769231        0        
C1        C        0.875        0.907408        0.11341019230769231        0        
C1        C        0.9375        0.907408        0.11341019230769231        0        
C2        C        0.03125        0.962963        0.11341019230769231        0        
C2        C        0.09375        0.962963        0.11341019230769231        0        
C2        C        0.15625        0.962963        0.11341019230769231        0        
C2        C        0.21875        0.962963        0.11341019230769231        0        
C2        C        0.28125        0.962963        0.11341019230769231        0        
C2        C        0.34375        0.962963        0.11341019230769231        0        
C2        C        0.40625        0.962963        0.11341019230769231        0        
C2        C        0.46875        0.962963        0.11341019230769231        0        
C2        C        0.53125        0.962963        0.11341019230769231        0        
C2        C        0.59375        0.962963        0.11341019230769231        0        
C2        C        0.65625        0.962963        0.11341019230769231        0        
C2        C        0.71875        0.962963        0.11341019230769231        0        
C2        C        0.78125        0.962963        0.11341019230769231        0        
C2        C        0.84375        0.962963        0.11341019230769231        0        
C2        C        0.9062500000000001        0.962963        0.11341019230769231        0        
C2        C        0.9687500000000001        0.962963        0.11341019230769231        0        
C3        C        0.0        0.9814809999999999        0.11341019230769231        0        
C3        C        0.0625        0.9814809999999999        0.11341019230769231        0        
C3        C        0.125        0.9814809999999999        0.11341019230769231        0        
C3        C        0.1875        0.9814809999999999        0.11341019230769231        0        
C3        C        0.25        0.9814809999999999        0.11341019230769231        0        
C3        C        0.3125        0.9814809999999999        0.11341019230769231        0        
C3        C        0.375        0.9814809999999999        0.11341019230769231        0        
C3        C        0.4375        0.9814809999999999        0.11341019230769231        0        
C3        C        0.5        0.9814809999999999        0.11341019230769231        0        
C3        C        0.5625        0.9814809999999999        0.11341019230769231        0        
C3        C        0.625        0.9814809999999999        0.11341019230769231        0        
C3        C        0.6875        0.9814809999999999        0.11341019230769231        0        
C3        C        0.75        0.9814809999999999        0.11341019230769231        0        
C3        C        0.8125        0.9814809999999999        0.11341019230769231        0        
C3        C        0.875        0.9814809999999999        0.11341019230769231        0        
C3        C        0.9375        0.9814809999999999        0.11341019230769231        0        
C4        C        0.03125        0.925925        0.11341019230769231        0        
C4        C        0.09375        0.925925        0.11341019230769231        0        
C4        C        0.15625        0.925925        0.11341019230769231        0        
C4        C        0.21875        0.925925        0.11341019230769231        0        
C4        C        0.28125        0.925925        0.11341019230769231        0        
C4        C        0.34375        0.925925        0.11341019230769231        0        
C4        C        0.40625        0.925925        0.11341019230769231        0        
C4        C        0.46875        0.925925        0.11341019230769231        0        
C4        C        0.53125        0.925925        0.11341019230769231        0        
C4        C        0.59375        0.925925        0.11341019230769231        0        
C4        C        0.65625        0.925925        0.11341019230769231        0        
C4        C        0.71875        0.925925        0.11341019230769231        0        
C4        C        0.78125        0.925925        0.11341019230769231        0        
C4        C        0.84375        0.925925        0.11341019230769231        0        
C4        C        0.9062500000000001        0.925925        0.11341019230769231        0        
C4        C        0.9687500000000001        0.925925        0.11341019230769231        0        
C1        C        0.0        0.018519        0.3281541923076923        0        
C2        C        0.03125        0.074075        0.3281541923076923        0        
C3        C        0.0        0.092592        0.3281541923076923        0        
C4        C        0.03125        0.037037        0.3281541923076923        0        
C1        C        0.0        0.12963        0.3281541923076923        0        
C2        C        0.03125        0.185185        0.3281541923076923        0        
C3        C        0.0        0.203703        0.3281541923076923        0        
C4        C        0.03125        0.148148        0.3281541923076923        0        
C1        C        0.0        0.24074099999999998        0.3281541923076923        0        
C2        C        0.03125        0.296297        0.3281541923076923        0        
C3        C        0.0        0.314815        0.3281541923076923        0        
C4        C        0.03125        0.259259        0.3281541923076923        0        
C1        C        0.0        0.351852        0.3281541923076923        0        
C2        C        0.03125        0.407408        0.3281541923076923        0        
C3        C        0.0        0.42592500000000005        0.3281541923076923        0        
C4        C        0.03125        0.37037        0.3281541923076923        0        
C1        C        0.0        0.46296300000000007        0.3281541923076923        0        
C2        C        0.03125        0.518519        0.3281541923076923        0        
C3        C        0.0        0.537037        0.3281541923076923        0        
C4        C        0.03125        0.481481        0.3281541923076923        0        
C1        C        0.0        0.574075        0.3281541923076923        0        
C2        C        0.03125        0.62963        0.3281541923076923        0        
C3        C        0.0        0.648148        0.3281541923076923        0        
C4        C        0.03125        0.592592        0.3281541923076923        0        
C1        C        0.0625        0.018519        0.3281541923076923        0        
C2        C        0.09375        0.074075        0.3281541923076923        0        
C3        C        0.0625        0.092592        0.3281541923076923        0        
C4        C        0.09375        0.037037        0.3281541923076923        0        
C1        C        0.0625        0.12963        0.3281541923076923        0        
C2        C        0.09375        0.185185        0.3281541923076923        0        
C3        C        0.0625        0.203703        0.3281541923076923        0        
C4        C        0.09375        0.148148        0.3281541923076923        0        
C1        C        0.0625        0.24074099999999998        0.3281541923076923        0        
C2        C        0.09375        0.296297        0.3281541923076923        0        
C3        C        0.0625        0.314815        0.3281541923076923        0        
C4        C        0.09375        0.259259        0.3281541923076923        0        
C1        C        0.0625        0.351852        0.3281541923076923        0        
C2        C        0.09375        0.407408        0.3281541923076923        0        
C3        C        0.0625        0.42592500000000005        0.3281541923076923        0        
C4        C        0.09375        0.37037        0.3281541923076923        0        
C1        C        0.0625        0.46296300000000007        0.3281541923076923        0        
C2        C        0.09375        0.518519        0.3281541923076923        0        
C3        C        0.0625        0.537037        0.3281541923076923        0        
C4        C        0.09375        0.481481        0.3281541923076923        0        
C1        C        0.0625        0.574075        0.3281541923076923        0        
C2        C        0.09375        0.62963        0.3281541923076923        0        
C3        C        0.0625        0.648148        0.3281541923076923        0        
C4        C        0.09375        0.592592        0.3281541923076923        0        
C1        C        0.125        0.018519        0.3281541923076923        0        
C2        C        0.15625        0.074075        0.3281541923076923        0        
C3        C        0.125        0.092592        0.3281541923076923        0        
C4        C        0.15625        0.037037        0.3281541923076923        0        
C1        C        0.125        0.12963        0.3281541923076923        0        
C2        C        0.15625        0.185185        0.3281541923076923        0        
C3        C        0.125        0.203703        0.3281541923076923        0        
C4        C        0.15625        0.148148        0.3281541923076923        0        
C1        C        0.125        0.24074099999999998        0.3281541923076923        0        
C2        C        0.15625        0.296297        0.3281541923076923        0        
C3        C        0.125        0.314815        0.3281541923076923        0        
C4        C        0.15625        0.259259        0.3281541923076923        0        
C1        C        0.125        0.351852        0.3281541923076923        0        
C2        C        0.15625        0.407408        0.3281541923076923        0        
C3        C        0.125        0.42592500000000005        0.3281541923076923        0        
C4        C        0.15625        0.37037        0.3281541923076923        0        
C1        C        0.125        0.46296300000000007        0.3281541923076923        0        
C2        C        0.15625        0.518519        0.3281541923076923        0        
C3        C        0.125        0.537037        0.3281541923076923        0        
C4        C        0.15625        0.481481        0.3281541923076923        0        
C1        C        0.125        0.574075        0.3281541923076923        0        
C2        C        0.15625        0.62963        0.3281541923076923        0        
C3        C        0.125        0.648148        0.3281541923076923        0        
C4        C        0.15625        0.592592        0.3281541923076923        0        
C1        C        0.1875        0.018519        0.3281541923076923        0        
C2        C        0.21875        0.074075        0.3281541923076923        0        
C3        C        0.1875        0.092592        0.3281541923076923        0        
C4        C        0.21875        0.037037        0.3281541923076923        0        
C1        C        0.1875        0.12963        0.3281541923076923        0        
C2        C        0.21875        0.185185        0.3281541923076923        0        
C3        C        0.1875        0.203703        0.3281541923076923        0        
C4        C        0.21875        0.148148        0.3281541923076923        0        
C1        C        0.1875        0.24074099999999998        0.3281541923076923        0        
C2        C        0.21875        0.296297        0.3281541923076923        0        
C3        C        0.1875        0.314815        0.3281541923076923        0        
C4        C        0.21875        0.259259        0.3281541923076923        0        
C1        C        0.1875        0.351852        0.3281541923076923        0        
C2        C        0.21875        0.407408        0.3281541923076923        0        
C3        C        0.1875        0.42592500000000005        0.3281541923076923        0        
C4        C        0.21875        0.37037        0.3281541923076923        0        
C1        C        0.1875        0.46296300000000007        0.3281541923076923        0        
C2        C        0.21875        0.518519        0.3281541923076923        0        
C3        C        0.1875        0.537037        0.3281541923076923        0        
C4        C        0.21875        0.481481        0.3281541923076923        0        
C1        C        0.1875        0.574075        0.3281541923076923        0        
C2        C        0.21875        0.62963        0.3281541923076923        0        
C3        C        0.1875        0.648148        0.3281541923076923        0        
C4        C        0.21875        0.592592        0.3281541923076923        0        
C1        C        0.25        0.018519        0.3281541923076923        0        
C2        C        0.28125        0.074075        0.3281541923076923        0        
C3        C        0.25        0.092592        0.3281541923076923        0        
C4        C        0.28125        0.037037        0.3281541923076923        0        
C1        C        0.25        0.12963        0.3281541923076923        0        
C2        C        0.28125        0.185185        0.3281541923076923        0        
C3        C        0.25        0.203703        0.3281541923076923        0        
C4        C        0.28125        0.148148        0.3281541923076923        0        
C1        C        0.25        0.24074099999999998        0.3281541923076923        0        
C2        C        0.28125        0.296297        0.3281541923076923        0        
C3        C        0.25        0.314815        0.3281541923076923        0        
C4        C        0.28125        0.259259        0.3281541923076923        0        
C1        C        0.25        0.351852        0.3281541923076923        0        
C2        C        0.28125        0.407408        0.3281541923076923        0        
C3        C        0.25        0.42592500000000005        0.3281541923076923        0        
C4        C        0.28125        0.37037        0.3281541923076923        0        
C1        C        0.25        0.46296300000000007        0.3281541923076923        0        
C2        C        0.28125        0.518519        0.3281541923076923        0        
C3        C        0.25        0.537037        0.3281541923076923        0        
C4        C        0.28125        0.481481        0.3281541923076923        0        
C1        C        0.25        0.574075        0.3281541923076923        0        
C2        C        0.28125        0.62963        0.3281541923076923        0        
C3        C        0.25        0.648148        0.3281541923076923        0        
C4        C        0.28125        0.592592        0.3281541923076923        0        
C1        C        0.3125        0.018519        0.3281541923076923        0        
C2        C        0.34375        0.074075        0.3281541923076923        0        
C3        C        0.3125        0.092592        0.3281541923076923        0        
C4        C        0.34375        0.037037        0.3281541923076923        0        
C1        C        0.3125        0.12963        0.3281541923076923        0        
C2        C        0.34375        0.185185        0.3281541923076923        0        
C3        C        0.3125        0.203703        0.3281541923076923        0        
C4        C        0.34375        0.148148        0.3281541923076923        0        
C1        C        0.3125        0.24074099999999998        0.3281541923076923        0        
C2        C        0.34375        0.296297        0.3281541923076923        0        
C3        C        0.3125        0.314815        0.3281541923076923        0        
C4        C        0.34375        0.259259        0.3281541923076923        0        
C1        C        0.3125        0.351852        0.3281541923076923        0        
C2        C        0.34375        0.407408        0.3281541923076923        0        
C3        C        0.3125        0.42592500000000005        0.3281541923076923        0        
C4        C        0.34375        0.37037        0.3281541923076923        0        
C1        C        0.3125        0.46296300000000007        0.3281541923076923        0        
C2        C        0.34375        0.518519        0.3281541923076923        0        
C3        C        0.3125        0.537037        0.3281541923076923        0        
C4        C        0.34375        0.481481        0.3281541923076923        0        
C1        C        0.3125        0.574075        0.3281541923076923        0        
C2        C        0.34375        0.62963        0.3281541923076923        0        
C3        C        0.3125        0.648148        0.3281541923076923        0        
C4        C        0.34375        0.592592        0.3281541923076923        0        
C1        C        0.375        0.018519        0.3281541923076923        0        
C2        C        0.40625        0.074075        0.3281541923076923        0        
C3        C        0.375        0.092592        0.3281541923076923        0        
C4        C        0.40625        0.037037        0.3281541923076923        0        
C1        C        0.375        0.12963        0.3281541923076923        0        
C2        C        0.40625        0.185185        0.3281541923076923        0        
C3        C        0.375        0.203703        0.3281541923076923        0        
C4        C        0.40625        0.148148        0.3281541923076923        0        
C1        C        0.375        0.24074099999999998        0.3281541923076923        0        
C2        C        0.40625        0.296297        0.3281541923076923        0        
C3        C        0.375        0.314815        0.3281541923076923        0        
C4        C        0.40625        0.259259        0.3281541923076923        0        
C1        C        0.375        0.351852        0.3281541923076923        0        
C2        C        0.40625        0.407408        0.3281541923076923        0        
C3        C        0.375        0.42592500000000005        0.3281541923076923        0        
C4        C        0.40625        0.37037        0.3281541923076923        0        
C1        C        0.375        0.46296300000000007        0.3281541923076923        0        
C2        C        0.40625        0.518519        0.3281541923076923        0        
C3        C        0.375        0.537037        0.3281541923076923        0        
C4        C        0.40625        0.481481        0.3281541923076923        0        
C1        C        0.375        0.574075        0.3281541923076923        0        
C2        C        0.40625        0.62963        0.3281541923076923        0        
C3        C        0.375        0.648148        0.3281541923076923        0        
C4        C        0.40625        0.592592        0.3281541923076923        0        
C1        C        0.4375        0.018519        0.3281541923076923        0        
C2        C        0.46875        0.074075        0.3281541923076923        0        
C3        C        0.4375        0.092592        0.3281541923076923        0        
C4        C        0.46875        0.037037        0.3281541923076923        0        
C1        C        0.4375        0.12963        0.3281541923076923        0        
C2        C        0.46875        0.185185        0.3281541923076923        0        
C3        C        0.4375        0.203703        0.3281541923076923        0        
C4        C        0.46875        0.148148        0.3281541923076923        0        
C1        C        0.4375        0.24074099999999998        0.3281541923076923        0        
C2        C        0.46875        0.296297        0.3281541923076923        0        
C3        C        0.4375        0.314815        0.3281541923076923        0        
C4        C        0.46875        0.259259        0.3281541923076923        0        
C1        C        0.4375        0.351852        0.3281541923076923        0        
C2        C        0.46875        0.407408        0.3281541923076923        0        
C3        C        0.4375        0.42592500000000005        0.3281541923076923        0        
C4        C        0.46875        0.37037        0.3281541923076923        0        
C1        C        0.4375        0.46296300000000007        0.3281541923076923        0        
C2        C        0.46875        0.518519        0.3281541923076923        0        
C3        C        0.4375        0.537037        0.3281541923076923        0        
C4        C        0.46875        0.481481        0.3281541923076923        0        
C1        C        0.4375        0.574075        0.3281541923076923        0        
C2        C        0.46875        0.62963        0.3281541923076923        0        
C3        C        0.4375        0.648148        0.3281541923076923        0        
C4        C        0.46875        0.592592        0.3281541923076923        0        
C1        C        0.5        0.018519        0.3281541923076923        0        
C2        C        0.53125        0.074075        0.3281541923076923        0        
C3        C        0.5        0.092592        0.3281541923076923        0        
C4        C        0.53125        0.037037        0.3281541923076923        0        
C1        C        0.5        0.12963        0.3281541923076923        0        
C2        C        0.53125        0.185185        0.3281541923076923        0        
C3        C        0.5        0.203703        0.3281541923076923        0        
C4        C        0.53125        0.148148        0.3281541923076923        0        
C1        C        0.5        0.24074099999999998        0.3281541923076923        0        
C2        C        0.53125        0.296297        0.3281541923076923        0        
C3        C        0.5        0.314815        0.3281541923076923        0        
C4        C        0.53125        0.259259        0.3281541923076923        0        
C1        C        0.5        0.351852        0.3281541923076923        0        
C2        C        0.53125        0.407408        0.3281541923076923        0        
C3        C        0.5        0.42592500000000005        0.3281541923076923        0        
C4        C        0.53125        0.37037        0.3281541923076923        0        
C1        C        0.5        0.46296300000000007        0.3281541923076923        0        
C2        C        0.53125        0.518519        0.3281541923076923        0        
C3        C        0.5        0.537037        0.3281541923076923        0        
C4        C        0.53125        0.481481        0.3281541923076923        0        
C1        C        0.5        0.574075        0.3281541923076923        0        
C2        C        0.53125        0.62963        0.3281541923076923        0        
C3        C        0.5        0.648148        0.3281541923076923        0        
C4        C        0.53125        0.592592        0.3281541923076923        0        
C1        C        0.5625        0.018519        0.3281541923076923        0        
C2        C        0.59375        0.074075        0.3281541923076923        0        
C3        C        0.5625        0.092592        0.3281541923076923        0        
C4        C        0.59375        0.037037        0.3281541923076923        0        
C1        C        0.5625        0.12963        0.3281541923076923        0        
C2        C        0.59375        0.185185        0.3281541923076923        0        
C3        C        0.5625        0.203703        0.3281541923076923        0        
C4        C        0.59375        0.148148        0.3281541923076923        0        
C1        C        0.5625        0.24074099999999998        0.3281541923076923        0        
C2        C        0.59375        0.296297        0.3281541923076923        0        
C3        C        0.5625        0.314815        0.3281541923076923        0        
C4        C        0.59375        0.259259        0.3281541923076923        0        
C1        C        0.5625        0.351852        0.3281541923076923        0        
C2        C        0.59375        0.407408        0.3281541923076923        0        
C3        C        0.5625        0.42592500000000005        0.3281541923076923        0        
C4        C        0.59375        0.37037        0.3281541923076923        0        
C1        C        0.5625        0.46296300000000007        0.3281541923076923        0        
C2        C        0.59375        0.518519        0.3281541923076923        0        
C3        C        0.5625        0.537037        0.3281541923076923        0        
C4        C        0.59375        0.481481        0.3281541923076923        0        
C1        C        0.5625        0.574075        0.3281541923076923        0        
C2        C        0.59375        0.62963        0.3281541923076923        0        
C3        C        0.5625        0.648148        0.3281541923076923        0        
C4        C        0.59375        0.592592        0.3281541923076923        0        
C1        C        0.625        0.018519        0.3281541923076923        0        
C2        C        0.65625        0.074075        0.3281541923076923        0        
C3        C        0.625        0.092592        0.3281541923076923        0        
C4        C        0.65625        0.037037        0.3281541923076923        0        
C1        C        0.625        0.12963        0.3281541923076923        0        
C2        C        0.65625        0.185185        0.3281541923076923        0        
C3        C        0.625        0.203703        0.3281541923076923        0        
C4        C        0.65625        0.148148        0.3281541923076923        0        
C1        C        0.625        0.24074099999999998        0.3281541923076923        0        
C2        C        0.65625        0.296297        0.3281541923076923        0        
C3        C        0.625        0.314815        0.3281541923076923        0        
C4        C        0.65625        0.259259        0.3281541923076923        0        
C1        C        0.625        0.351852        0.3281541923076923        0        
C2        C        0.65625        0.407408        0.3281541923076923        0        
C3        C        0.625        0.42592500000000005        0.3281541923076923        0        
C4        C        0.65625        0.37037        0.3281541923076923        0        
C1        C        0.625        0.46296300000000007        0.3281541923076923        0        
C2        C        0.65625        0.518519        0.3281541923076923        0        
C3        C        0.625        0.537037        0.3281541923076923        0        
C4        C        0.65625        0.481481        0.3281541923076923        0        
C1        C        0.625        0.574075        0.3281541923076923        0        
C2        C        0.65625        0.62963        0.3281541923076923        0        
C3        C        0.625        0.648148        0.3281541923076923        0        
C4        C        0.65625        0.592592        0.3281541923076923        0        
C1        C        0.6875        0.018519        0.3281541923076923        0        
C2        C        0.71875        0.074075        0.3281541923076923        0        
C3        C        0.6875        0.092592        0.3281541923076923        0        
C4        C        0.71875        0.037037        0.3281541923076923        0        
C1        C        0.6875        0.12963        0.3281541923076923        0        
C2        C        0.71875        0.185185        0.3281541923076923        0        
C3        C        0.6875        0.203703        0.3281541923076923        0        
C4        C        0.71875        0.148148        0.3281541923076923        0        
C1        C        0.6875        0.24074099999999998        0.3281541923076923        0        
C2        C        0.71875        0.296297        0.3281541923076923        0        
C3        C        0.6875        0.314815        0.3281541923076923        0        
C4        C        0.71875        0.259259        0.3281541923076923        0        
C1        C        0.6875        0.351852        0.3281541923076923        0        
C2        C        0.71875        0.407408        0.3281541923076923        0        
C3        C        0.6875        0.42592500000000005        0.3281541923076923        0        
C4        C        0.71875        0.37037        0.3281541923076923        0        
C1        C        0.6875        0.46296300000000007        0.3281541923076923        0        
C2        C        0.71875        0.518519        0.3281541923076923        0        
C3        C        0.6875        0.537037        0.3281541923076923        0        
C4        C        0.71875        0.481481        0.3281541923076923        0        
C1        C        0.6875        0.574075        0.3281541923076923        0        
C2        C        0.71875        0.62963        0.3281541923076923        0        
C3        C        0.6875        0.648148        0.3281541923076923        0        
C4        C        0.71875        0.592592        0.3281541923076923        0        
C1        C        0.75        0.018519        0.3281541923076923        0        
C2        C        0.78125        0.074075        0.3281541923076923        0        
C3        C        0.75        0.092592        0.3281541923076923        0        
C4        C        0.78125        0.037037        0.3281541923076923        0        
C1        C        0.75        0.12963        0.3281541923076923        0        
C2        C        0.78125        0.185185        0.3281541923076923        0        
C3        C        0.75        0.203703        0.3281541923076923        0        
C4        C        0.78125        0.148148        0.3281541923076923        0        
C1        C        0.75        0.24074099999999998        0.3281541923076923        0        
C2        C        0.78125        0.296297        0.3281541923076923        0        
C3        C        0.75        0.314815        0.3281541923076923        0        
C4        C        0.78125        0.259259        0.3281541923076923        0        
C1        C        0.75        0.351852        0.3281541923076923        0        
C2        C        0.78125        0.407408        0.3281541923076923        0        
C3        C        0.75        0.42592500000000005        0.3281541923076923        0        
C4        C        0.78125        0.37037        0.3281541923076923        0        
C1        C        0.75        0.46296300000000007        0.3281541923076923        0        
C2        C        0.78125        0.518519        0.3281541923076923        0        
C3        C        0.75        0.537037        0.3281541923076923        0        
C4        C        0.78125        0.481481        0.3281541923076923        0        
C1        C        0.75        0.574075        0.3281541923076923        0        
C2        C        0.78125        0.62963        0.3281541923076923        0        
C3        C        0.75        0.648148        0.3281541923076923        0        
C4        C        0.78125        0.592592        0.3281541923076923        0        
C1        C        0.8125        0.018519        0.3281541923076923        0        
C2        C        0.84375        0.074075        0.3281541923076923        0        
C3        C        0.8125        0.092592        0.3281541923076923        0        
C4        C        0.84375        0.037037        0.3281541923076923        0        
C1        C        0.8125        0.12963        0.3281541923076923        0        
C2        C        0.84375        0.185185        0.3281541923076923        0        
C3        C        0.8125        0.203703        0.3281541923076923        0        
C4        C        0.84375        0.148148        0.3281541923076923        0        
C1        C        0.8125        0.24074099999999998        0.3281541923076923        0        
C2        C        0.84375        0.296297        0.3281541923076923        0        
C3        C        0.8125        0.314815        0.3281541923076923        0        
C4        C        0.84375        0.259259        0.3281541923076923        0        
C1        C        0.8125        0.351852        0.3281541923076923        0        
C2        C        0.84375        0.407408        0.3281541923076923        0        
C3        C        0.8125        0.42592500000000005        0.3281541923076923        0        
C4        C        0.84375        0.37037        0.3281541923076923        0        
C1        C        0.8125        0.46296300000000007        0.3281541923076923        0        
C2        C        0.84375        0.518519        0.3281541923076923        0        
C3        C        0.8125        0.537037        0.3281541923076923        0        
C4        C        0.84375        0.481481        0.3281541923076923        0        
C1        C        0.8125        0.574075        0.3281541923076923        0        
C2        C        0.84375        0.62963        0.3281541923076923        0        
C3        C        0.8125        0.648148        0.3281541923076923        0        
C4        C        0.84375        0.592592        0.3281541923076923        0        
C1        C        0.875        0.018519        0.3281541923076923        0        
C2        C        0.9062500000000001        0.074075        0.3281541923076923        0        
C3        C        0.875        0.092592        0.3281541923076923        0        
C4        C        0.9062500000000001        0.037037        0.3281541923076923        0        
C1        C        0.875        0.12963        0.3281541923076923        0        
C2        C        0.9062500000000001        0.185185        0.3281541923076923        0        
C3        C        0.875        0.203703        0.3281541923076923        0        
C4        C        0.9062500000000001        0.148148        0.3281541923076923        0        
C1        C        0.875        0.24074099999999998        0.3281541923076923        0        
C2        C        0.9062500000000001        0.296297        0.3281541923076923        0        
C3        C        0.875        0.314815        0.3281541923076923        0        
C4        C        0.9062500000000001        0.259259        0.3281541923076923        0        
C1        C        0.875        0.351852        0.3281541923076923        0        
C2        C        0.9062500000000001        0.407408        0.3281541923076923        0        
C3        C        0.875        0.42592500000000005        0.3281541923076923        0        
C4        C        0.9062500000000001        0.37037        0.3281541923076923        0        
C1        C        0.875        0.46296300000000007        0.3281541923076923        0        
C2        C        0.9062500000000001        0.518519        0.3281541923076923        0        
C3        C        0.875        0.537037        0.3281541923076923        0        
C4        C        0.9062500000000001        0.481481        0.3281541923076923        0        
C1        C        0.875        0.574075        0.3281541923076923        0        
C2        C        0.9062500000000001        0.62963        0.3281541923076923        0        
C3        C        0.875        0.648148        0.3281541923076923        0        
C4        C        0.9062500000000001        0.592592        0.3281541923076923        0        
C1        C        0.9375        0.018519        0.3281541923076923        0        
C2        C        0.9687500000000001        0.074075        0.3281541923076923        0        
C3        C        0.9375        0.092592        0.3281541923076923        0        
C4        C        0.9687500000000001        0.037037        0.3281541923076923        0        
C1        C        0.9375        0.12963        0.3281541923076923        0        
C2        C        0.9687500000000001        0.185185        0.3281541923076923        0        
C3        C        0.9375        0.203703        0.3281541923076923        0        
C4        C        0.9687500000000001        0.148148        0.3281541923076923        0        
C1        C        0.9375        0.24074099999999998        0.3281541923076923        0        
C2        C        0.9687500000000001        0.296297        0.3281541923076923        0        
C3        C        0.9375        0.314815        0.3281541923076923        0        
C4        C        0.9687500000000001        0.259259        0.3281541923076923        0        
C1        C        0.9375        0.351852        0.3281541923076923        0        
C2        C        0.9687500000000001        0.407408        0.3281541923076923        0        
C3        C        0.9375        0.42592500000000005        0.3281541923076923        0        
C4        C        0.9687500000000001        0.37037        0.3281541923076923        0        
C1        C        0.9375        0.46296300000000007        0.3281541923076923        0        
C2        C        0.9687500000000001        0.518519        0.3281541923076923        0        
C3        C        0.9375        0.537037        0.3281541923076923        0        
C4        C        0.9687500000000001        0.481481        0.3281541923076923        0        
C1        C        0.9375        0.574075        0.3281541923076923        0        
C2        C        0.9687500000000001        0.62963        0.3281541923076923        0        
C3        C        0.9375        0.648148        0.3281541923076923        0        
C4        C        0.9687500000000001        0.592592        0.3281541923076923        0        
C1        C        0.0        0.685186        0.3281541923076923        0        
C1        C        0.0625        0.685186        0.3281541923076923        0        
C1        C        0.125        0.685186        0.3281541923076923        0        
C1        C        0.1875        0.685186        0.3281541923076923        0        
C1        C        0.25        0.685186        0.3281541923076923        0        
C1        C        0.3125        0.685186        0.3281541923076923        0        
C1        C        0.375        0.685186        0.3281541923076923        0        
C1        C        0.4375        0.685186        0.3281541923076923        0        
C1        C        0.5        0.685186        0.3281541923076923        0        
C1        C        0.5625        0.685186        0.3281541923076923        0        
C1        C        0.625        0.685186        0.3281541923076923        0        
C1        C        0.6875        0.685186        0.3281541923076923        0        
C1        C        0.75        0.685186        0.3281541923076923        0        
C1        C        0.8125        0.685186        0.3281541923076923        0        
C1        C        0.875        0.685186        0.3281541923076923        0        
C1        C        0.9375        0.685186        0.3281541923076923        0        
C2        C        0.03125        0.740741        0.3281541923076923        0        
C2        C        0.09375        0.740741        0.3281541923076923        0        
C2        C        0.15625        0.740741        0.3281541923076923        0        
C2        C        0.21875        0.740741        0.3281541923076923        0        
C2        C        0.28125        0.740741        0.3281541923076923        0        
C2        C        0.34375        0.740741        0.3281541923076923        0        
C2        C        0.40625        0.740741        0.3281541923076923        0        
C2        C        0.46875        0.740741        0.3281541923076923        0        
C2        C        0.53125        0.740741        0.3281541923076923        0        
C2        C        0.59375        0.740741        0.3281541923076923        0        
C2        C        0.65625        0.740741        0.3281541923076923        0        
C2        C        0.71875        0.740741        0.3281541923076923        0        
C2        C        0.78125        0.740741        0.3281541923076923        0        
C2        C        0.84375        0.740741        0.3281541923076923        0        
C2        C        0.9062500000000001        0.740741        0.3281541923076923        0        
C2        C        0.9687500000000001        0.740741        0.3281541923076923        0        
C3        C        0.0        0.759259        0.3281541923076923        0        
C3        C        0.0625        0.759259        0.3281541923076923        0        
C3        C        0.125        0.759259        0.3281541923076923        0        
C3        C        0.1875        0.759259        0.3281541923076923        0        
C3        C        0.25        0.759259        0.3281541923076923        0        
C3        C        0.3125        0.759259        0.3281541923076923        0        
C3        C        0.375        0.759259        0.3281541923076923        0        
C3        C        0.4375        0.759259        0.3281541923076923        0        
C3        C        0.5        0.759259        0.3281541923076923        0        
C3        C        0.5625        0.759259        0.3281541923076923        0        
C3        C        0.625        0.759259        0.3281541923076923        0        
C3        C        0.6875        0.759259        0.3281541923076923        0        
C3        C        0.75        0.759259        0.3281541923076923        0        
C3        C        0.8125        0.759259        0.3281541923076923        0        
C3        C        0.875        0.759259        0.3281541923076923        0        
C3        C        0.9375        0.759259        0.3281541923076923        0        
C4        C        0.03125        0.703703        0.3281541923076923        0        
C4        C        0.09375        0.703703        0.3281541923076923        0        
C4        C        0.15625        0.703703        0.3281541923076923        0        
C4        C        0.21875        0.703703        0.3281541923076923        0        
C4        C        0.28125        0.703703        0.3281541923076923        0        
C4        C        0.34375        0.703703        0.3281541923076923        0        
C4        C        0.40625        0.703703        0.3281541923076923        0        
C4        C        0.46875        0.703703        0.3281541923076923        0        
C4        C        0.53125        0.703703        0.3281541923076923        0        
C4        C        0.59375        0.703703        0.3281541923076923        0        
C4        C        0.65625        0.703703        0.3281541923076923        0        
C4        C        0.71875        0.703703        0.3281541923076923        0        
C4        C        0.78125        0.703703        0.3281541923076923        0        
C4        C        0.84375        0.703703        0.3281541923076923        0        
C4        C        0.9062500000000001        0.703703        0.3281541923076923        0        
C4        C        0.9687500000000001        0.703703        0.3281541923076923        0        
C1        C        0.0        0.796297        0.3281541923076923        0        
C1        C        0.0625        0.796297        0.3281541923076923        0        
C1        C        0.125        0.796297        0.3281541923076923        0        
C1        C        0.1875        0.796297        0.3281541923076923        0        
C1        C        0.25        0.796297        0.3281541923076923        0        
C1        C        0.3125        0.796297        0.3281541923076923        0        
C1        C        0.375        0.796297        0.3281541923076923        0        
C1        C        0.4375        0.796297        0.3281541923076923        0        
C1        C        0.5        0.796297        0.3281541923076923        0        
C1        C        0.5625        0.796297        0.3281541923076923        0        
C1        C        0.625        0.796297        0.3281541923076923        0        
C1        C        0.6875        0.796297        0.3281541923076923        0        
C1        C        0.75        0.796297        0.3281541923076923        0        
C1        C        0.8125        0.796297        0.3281541923076923        0        
C1        C        0.875        0.796297        0.3281541923076923        0        
C1        C        0.9375        0.796297        0.3281541923076923        0        
C2        C        0.03125        0.851852        0.3281541923076923        0        
C2        C        0.09375        0.851852        0.3281541923076923        0        
C2        C        0.15625        0.851852        0.3281541923076923        0        
C2        C        0.21875        0.851852        0.3281541923076923        0        
C2        C        0.28125        0.851852        0.3281541923076923        0        
C2        C        0.34375        0.851852        0.3281541923076923        0        
C2        C        0.40625        0.851852        0.3281541923076923        0        
C2        C        0.46875        0.851852        0.3281541923076923        0        
C2        C        0.53125        0.851852        0.3281541923076923        0        
C2        C        0.59375        0.851852        0.3281541923076923        0        
C2        C        0.65625        0.851852        0.3281541923076923        0        
C2        C        0.71875        0.851852        0.3281541923076923        0        
C2        C        0.78125        0.851852        0.3281541923076923        0        
C2        C        0.84375        0.851852        0.3281541923076923        0        
C2        C        0.9062500000000001        0.851852        0.3281541923076923        0        
C2        C        0.9687500000000001        0.851852        0.3281541923076923        0        
C3        C        0.0        0.87037        0.3281541923076923        0        
C3        C        0.0625        0.87037        0.3281541923076923        0        
C3        C        0.125        0.87037        0.3281541923076923        0        
C3        C        0.1875        0.87037        0.3281541923076923        0        
C3        C        0.25        0.87037        0.3281541923076923        0        
C3        C        0.3125        0.87037        0.3281541923076923        0        
C3        C        0.375        0.87037        0.3281541923076923        0        
C3        C        0.4375        0.87037        0.3281541923076923        0        
C3        C        0.5        0.87037        0.3281541923076923        0        
C3        C        0.5625        0.87037        0.3281541923076923        0        
C3        C        0.625        0.87037        0.3281541923076923        0        
C3        C        0.6875        0.87037        0.3281541923076923        0        
C3        C        0.75        0.87037        0.3281541923076923        0        
C3        C        0.8125        0.87037        0.3281541923076923        0        
C3        C        0.875        0.87037        0.3281541923076923        0        
C3        C        0.9375        0.87037        0.3281541923076923        0        
C4        C        0.03125        0.814814        0.3281541923076923        0        
C4        C        0.09375        0.814814        0.3281541923076923        0        
C4        C        0.15625        0.814814        0.3281541923076923        0        
C4        C        0.21875        0.814814        0.3281541923076923        0        
C4        C        0.28125        0.814814        0.3281541923076923        0        
C4        C        0.34375        0.814814        0.3281541923076923        0        
C4        C        0.40625        0.814814        0.3281541923076923        0        
C4        C        0.46875        0.814814        0.3281541923076923        0        
C4        C        0.53125        0.814814        0.3281541923076923        0        
C4        C        0.59375        0.814814        0.3281541923076923        0        
C4        C        0.65625        0.814814        0.3281541923076923        0        
C4        C        0.71875        0.814814        0.3281541923076923        0        
C4        C        0.78125        0.814814        0.3281541923076923        0        
C4        C        0.84375        0.814814        0.3281541923076923        0        
C4        C        0.9062500000000001        0.814814        0.3281541923076923        0        
C4        C        0.9687500000000001        0.814814        0.3281541923076923        0        
C1        C        0.0        0.907408        0.3281541923076923        0        
C1        C        0.0625        0.907408        0.3281541923076923        0        
C1        C        0.125        0.907408        0.3281541923076923        0        
C1        C        0.1875        0.907408        0.3281541923076923        0        
C1        C        0.25        0.907408        0.3281541923076923        0        
C1        C        0.3125        0.907408        0.3281541923076923        0        
C1        C        0.375        0.907408        0.3281541923076923        0        
C1        C        0.4375        0.907408        0.3281541923076923        0        
C1        C        0.5        0.907408        0.3281541923076923        0        
C1        C        0.5625        0.907408        0.3281541923076923        0        
C1        C        0.625        0.907408        0.3281541923076923        0        
C1        C        0.6875        0.907408        0.3281541923076923        0        
C1        C        0.75        0.907408        0.3281541923076923        0        
C1        C        0.8125        0.907408        0.3281541923076923        0        
C1        C        0.875        0.907408        0.3281541923076923        0        
C1        C        0.9375        0.907408        0.3281541923076923        0        
C2        C        0.03125        0.962963        0.3281541923076923        0        
C2        C        0.09375        0.962963        0.3281541923076923        0        
C2        C        0.15625        0.962963        0.3281541923076923        0        
C2        C        0.21875        0.962963        0.3281541923076923        0        
C2        C        0.28125        0.962963        0.3281541923076923        0        
C2        C        0.34375        0.962963        0.3281541923076923        0        
C2        C        0.40625        0.962963        0.3281541923076923        0        
C2        C        0.46875        0.962963        0.3281541923076923        0        
C2        C        0.53125        0.962963        0.3281541923076923        0        
C2        C        0.59375        0.962963        0.3281541923076923        0        
C2        C        0.65625        0.962963        0.3281541923076923        0        
C2        C        0.71875        0.962963        0.3281541923076923        0        
C2        C        0.78125        0.962963        0.3281541923076923        0        
C2        C        0.84375        0.962963        0.3281541923076923        0        
C2        C        0.9062500000000001        0.962963        0.3281541923076923        0        
C2        C        0.9687500000000001        0.962963        0.3281541923076923        0        
C3        C        0.0        0.9814809999999999        0.3281541923076923        0        
C3        C        0.0625        0.9814809999999999        0.3281541923076923        0        
C3        C        0.125        0.9814809999999999        0.3281541923076923        0        
C3        C        0.1875        0.9814809999999999        0.3281541923076923        0        
C3        C        0.25        0.9814809999999999        0.3281541923076923        0        
C3        C        0.3125        0.9814809999999999        0.3281541923076923        0        
C3        C        0.375        0.9814809999999999        0.3281541923076923        0        
C3        C        0.4375        0.9814809999999999        0.3281541923076923        0        
C3        C        0.5        0.9814809999999999        0.3281541923076923        0        
C3        C        0.5625        0.9814809999999999        0.3281541923076923        0        
C3        C        0.625        0.9814809999999999        0.3281541923076923        0        
C3        C        0.6875        0.9814809999999999        0.3281541923076923        0        
C3        C        0.75        0.9814809999999999        0.3281541923076923        0        
C3        C        0.8125        0.9814809999999999        0.3281541923076923        0        
C3        C        0.875        0.9814809999999999        0.3281541923076923        0        
C3        C        0.9375        0.9814809999999999        0.3281541923076923        0        
C4        C        0.03125        0.925925        0.3281541923076923        0        
C4        C        0.09375        0.925925        0.3281541923076923        0        
C4        C        0.15625        0.925925        0.3281541923076923        0        
C4        C        0.21875        0.925925        0.3281541923076923        0        
C4        C        0.28125        0.925925        0.3281541923076923        0        
C4        C        0.34375        0.925925        0.3281541923076923        0        
C4        C        0.40625        0.925925        0.3281541923076923        0        
C4        C        0.46875        0.925925        0.3281541923076923        0        
C4        C        0.53125        0.925925        0.3281541923076923        0        
C4        C        0.59375        0.925925        0.3281541923076923        0        
C4        C        0.65625        0.925925        0.3281541923076923        0        
C4        C        0.71875        0.925925        0.3281541923076923        0        
C4        C        0.78125        0.925925        0.3281541923076923        0        
C4        C        0.84375        0.925925        0.3281541923076923        0        
C4        C        0.9062500000000001        0.925925        0.3281541923076923        0        
C4        C        0.9687500000000001        0.925925        0.3281541923076923        0        
C1        C        0.0        0.018519        0.5428971923076924        0        
C2        C        0.03125        0.074075        0.5428971923076924        0        
C3        C        0.0        0.092592        0.5428971923076924        0        
C4        C        0.03125        0.037037        0.5428971923076924        0        
C1        C        0.0        0.12963        0.5428971923076924        0        
C2        C        0.03125        0.185185        0.5428971923076924        0        
C3        C        0.0        0.203703        0.5428971923076924        0        
C4        C        0.03125        0.148148        0.5428971923076924        0        
C1        C        0.0        0.24074099999999998        0.5428971923076924        0        
C2        C        0.03125        0.296297        0.5428971923076924        0        
C3        C        0.0        0.314815        0.5428971923076924        0        
C4        C        0.03125        0.259259        0.5428971923076924        0        
C1        C        0.0        0.351852        0.5428971923076924        0        
C2        C        0.03125        0.407408        0.5428971923076924        0        
C3        C        0.0        0.42592500000000005        0.5428971923076924        0        
C4        C        0.03125        0.37037        0.5428971923076924        0        
C1        C        0.0        0.46296300000000007        0.5428971923076924        0        
C2        C        0.03125        0.518519        0.5428971923076924        0        
C3        C        0.0        0.537037        0.5428971923076924        0        
C4        C        0.03125        0.481481        0.5428971923076924        0        
C1        C        0.0        0.574075        0.5428971923076924        0        
C2        C        0.03125        0.62963        0.5428971923076924        0        
C3        C        0.0        0.648148        0.5428971923076924        0        
C4        C        0.03125        0.592592        0.5428971923076924        0        
C1        C        0.0625        0.018519        0.5428971923076924        0        
C2        C        0.09375        0.074075        0.5428971923076924        0        
C3        C        0.0625        0.092592        0.5428971923076924        0        
C4        C        0.09375        0.037037        0.5428971923076924        0        
C1        C        0.0625        0.12963        0.5428971923076924        0        
C2        C        0.09375        0.185185        0.5428971923076924        0        
C3        C        0.0625        0.203703        0.5428971923076924        0        
C4        C        0.09375        0.148148        0.5428971923076924        0        
C1        C        0.0625        0.24074099999999998        0.5428971923076924        0        
C2        C        0.09375        0.296297        0.5428971923076924        0        
C3        C        0.0625        0.314815        0.5428971923076924        0        
C4        C        0.09375        0.259259        0.5428971923076924        0        
C1        C        0.0625        0.351852        0.5428971923076924        0        
C2        C        0.09375        0.407408        0.5428971923076924        0        
C3        C        0.0625        0.42592500000000005        0.5428971923076924        0        
C4        C        0.09375        0.37037        0.5428971923076924        0        
C1        C        0.0625        0.46296300000000007        0.5428971923076924        0        
C2        C        0.09375        0.518519        0.5428971923076924        0        
C3        C        0.0625        0.537037        0.5428971923076924        0        
C4        C        0.09375        0.481481        0.5428971923076924        0        
C1        C        0.0625        0.574075        0.5428971923076924        0        
C2        C        0.09375        0.62963        0.5428971923076924        0        
C3        C        0.0625        0.648148        0.5428971923076924        0        
C4        C        0.09375        0.592592        0.5428971923076924        0        
C1        C        0.125        0.018519        0.5428971923076924        0        
C2        C        0.15625        0.074075        0.5428971923076924        0        
C3        C        0.125        0.092592        0.5428971923076924        0        
C4        C        0.15625        0.037037        0.5428971923076924        0        
C1        C        0.125        0.12963        0.5428971923076924        0        
C2        C        0.15625        0.185185        0.5428971923076924        0        
C3        C        0.125        0.203703        0.5428971923076924        0        
C4        C        0.15625        0.148148        0.5428971923076924        0        
C1        C        0.125        0.24074099999999998        0.5428971923076924        0        
C2        C        0.15625        0.296297        0.5428971923076924        0        
C3        C        0.125        0.314815        0.5428971923076924        0        
C4        C        0.15625        0.259259        0.5428971923076924        0        
C1        C        0.125        0.351852        0.5428971923076924        0        
C2        C        0.15625        0.407408        0.5428971923076924        0        
C3        C        0.125        0.42592500000000005        0.5428971923076924        0        
C4        C        0.15625        0.37037        0.5428971923076924        0        
C1        C        0.125        0.46296300000000007        0.5428971923076924        0        
C2        C        0.15625        0.518519        0.5428971923076924        0        
C3        C        0.125        0.537037        0.5428971923076924        0        
C4        C        0.15625        0.481481        0.5428971923076924        0        
C1        C        0.125        0.574075        0.5428971923076924        0        
C2        C        0.15625        0.62963        0.5428971923076924        0        
C3        C        0.125        0.648148        0.5428971923076924        0        
C4        C        0.15625        0.592592        0.5428971923076924        0        
C1        C        0.1875        0.018519        0.5428971923076924        0        
C2        C        0.21875        0.074075        0.5428971923076924        0        
C3        C        0.1875        0.092592        0.5428971923076924        0        
C4        C        0.21875        0.037037        0.5428971923076924        0        
C1        C        0.1875        0.12963        0.5428971923076924        0        
C2        C        0.21875        0.185185        0.5428971923076924        0        
C3        C        0.1875        0.203703        0.5428971923076924        0        
C4        C        0.21875        0.148148        0.5428971923076924        0        
C1        C        0.1875        0.24074099999999998        0.5428971923076924        0        
C2        C        0.21875        0.296297        0.5428971923076924        0        
C3        C        0.1875        0.314815        0.5428971923076924        0        
C4        C        0.21875        0.259259        0.5428971923076924        0        
C1        C        0.1875        0.351852        0.5428971923076924        0        
C2        C        0.21875        0.407408        0.5428971923076924        0        
C3        C        0.1875        0.42592500000000005        0.5428971923076924        0        
C4        C        0.21875        0.37037        0.5428971923076924        0        
C1        C        0.1875        0.46296300000000007        0.5428971923076924        0        
C2        C        0.21875        0.518519        0.5428971923076924        0        
C3        C        0.1875        0.537037        0.5428971923076924        0        
C4        C        0.21875        0.481481        0.5428971923076924        0        
C1        C        0.1875        0.574075        0.5428971923076924        0        
C2        C        0.21875        0.62963        0.5428971923076924        0        
C3        C        0.1875        0.648148        0.5428971923076924        0        
C4        C        0.21875        0.592592        0.5428971923076924        0        
C1        C        0.25        0.018519        0.5428971923076924        0        
C2        C        0.28125        0.074075        0.5428971923076924        0        
C3        C        0.25        0.092592        0.5428971923076924        0        
C4        C        0.28125        0.037037        0.5428971923076924        0        
C1        C        0.25        0.12963        0.5428971923076924        0        
C2        C        0.28125        0.185185        0.5428971923076924        0        
C3        C        0.25        0.203703        0.5428971923076924        0        
C4        C        0.28125        0.148148        0.5428971923076924        0        
C1        C        0.25        0.24074099999999998        0.5428971923076924        0        
C2        C        0.28125        0.296297        0.5428971923076924        0        
C3        C        0.25        0.314815        0.5428971923076924        0        
C4        C        0.28125        0.259259        0.5428971923076924        0        
C1        C        0.25        0.351852        0.5428971923076924        0        
C2        C        0.28125        0.407408        0.5428971923076924        0        
C3        C        0.25        0.42592500000000005        0.5428971923076924        0        
C4        C        0.28125        0.37037        0.5428971923076924        0        
C1        C        0.25        0.46296300000000007        0.5428971923076924        0        
C2        C        0.28125        0.518519        0.5428971923076924        0        
C3        C        0.25        0.537037        0.5428971923076924        0        
C4        C        0.28125        0.481481        0.5428971923076924        0        
C1        C        0.25        0.574075        0.5428971923076924        0        
C2        C        0.28125        0.62963        0.5428971923076924        0        
C3        C        0.25        0.648148        0.5428971923076924        0        
C4        C        0.28125        0.592592        0.5428971923076924        0        
C1        C        0.3125        0.018519        0.5428971923076924        0        
C2        C        0.34375        0.074075        0.5428971923076924        0        
C3        C        0.3125        0.092592        0.5428971923076924        0        
C4        C        0.34375        0.037037        0.5428971923076924        0        
C1        C        0.3125        0.12963        0.5428971923076924        0        
C2        C        0.34375        0.185185        0.5428971923076924        0        
C3        C        0.3125        0.203703        0.5428971923076924        0        
C4        C        0.34375        0.148148        0.5428971923076924        0        
C1        C        0.3125        0.24074099999999998        0.5428971923076924        0        
C2        C        0.34375        0.296297        0.5428971923076924        0        
C3        C        0.3125        0.314815        0.5428971923076924        0        
C4        C        0.34375        0.259259        0.5428971923076924        0        
C1        C        0.3125        0.351852        0.5428971923076924        0        
C2        C        0.34375        0.407408        0.5428971923076924        0        
C3        C        0.3125        0.42592500000000005        0.5428971923076924        0        
C4        C        0.34375        0.37037        0.5428971923076924        0        
C1        C        0.3125        0.46296300000000007        0.5428971923076924        0        
C2        C        0.34375        0.518519        0.5428971923076924        0        
C3        C        0.3125        0.537037        0.5428971923076924        0        
C4        C        0.34375        0.481481        0.5428971923076924        0        
C1        C        0.3125        0.574075        0.5428971923076924        0        
C2        C        0.34375        0.62963        0.5428971923076924        0        
C3        C        0.3125        0.648148        0.5428971923076924        0        
C4        C        0.34375        0.592592        0.5428971923076924        0        
C1        C        0.375        0.018519        0.5428971923076924        0        
C2        C        0.40625        0.074075        0.5428971923076924        0        
C3        C        0.375        0.092592        0.5428971923076924        0        
C4        C        0.40625        0.037037        0.5428971923076924        0        
C1        C        0.375        0.12963        0.5428971923076924        0        
C2        C        0.40625        0.185185        0.5428971923076924        0        
C3        C        0.375        0.203703        0.5428971923076924        0        
C4        C        0.40625        0.148148        0.5428971923076924        0        
C1        C        0.375        0.24074099999999998        0.5428971923076924        0        
C2        C        0.40625        0.296297        0.5428971923076924        0        
C3        C        0.375        0.314815        0.5428971923076924        0        
C4        C        0.40625        0.259259        0.5428971923076924        0        
C1        C        0.375        0.351852        0.5428971923076924        0        
C2        C        0.40625        0.407408        0.5428971923076924        0        
C3        C        0.375        0.42592500000000005        0.5428971923076924        0        
C4        C        0.40625        0.37037        0.5428971923076924        0        
C1        C        0.375        0.46296300000000007        0.5428971923076924        0        
C2        C        0.40625        0.518519        0.5428971923076924        0        
C3        C        0.375        0.537037        0.5428971923076924        0        
C4        C        0.40625        0.481481        0.5428971923076924        0        
C1        C        0.375        0.574075        0.5428971923076924        0        
C2        C        0.40625        0.62963        0.5428971923076924        0        
C3        C        0.375        0.648148        0.5428971923076924        0        
C4        C        0.40625        0.592592        0.5428971923076924        0        
C1        C        0.4375        0.018519        0.5428971923076924        0        
C2        C        0.46875        0.074075        0.5428971923076924        0        
C3        C        0.4375        0.092592        0.5428971923076924        0        
C4        C        0.46875        0.037037        0.5428971923076924        0        
C1        C        0.4375        0.12963        0.5428971923076924        0        
C2        C        0.46875        0.185185        0.5428971923076924        0        
C3        C        0.4375        0.203703        0.5428971923076924        0        
C4        C        0.46875        0.148148        0.5428971923076924        0        
C1        C        0.4375        0.24074099999999998        0.5428971923076924        0        
C2        C        0.46875        0.296297        0.5428971923076924        0        
C3        C        0.4375        0.314815        0.5428971923076924        0        
C4        C        0.46875        0.259259        0.5428971923076924        0        
C1        C        0.4375        0.351852        0.5428971923076924        0        
C2        C        0.46875        0.407408        0.5428971923076924        0        
C3        C        0.4375        0.42592500000000005        0.5428971923076924        0        
C4        C        0.46875        0.37037        0.5428971923076924        0        
C1        C        0.4375        0.46296300000000007        0.5428971923076924        0        
C2        C        0.46875        0.518519        0.5428971923076924        0        
C3        C        0.4375        0.537037        0.5428971923076924        0        
C4        C        0.46875        0.481481        0.5428971923076924        0        
C1        C        0.4375        0.574075        0.5428971923076924        0        
C2        C        0.46875        0.62963        0.5428971923076924        0        
C3        C        0.4375        0.648148        0.5428971923076924        0        
C4        C        0.46875        0.592592        0.5428971923076924        0        
C1        C        0.5        0.018519        0.5428971923076924        0        
C2        C        0.53125        0.074075        0.5428971923076924        0        
C3        C        0.5        0.092592        0.5428971923076924        0        
C4        C        0.53125        0.037037        0.5428971923076924        0        
C1        C        0.5        0.12963        0.5428971923076924        0        
C2        C        0.53125        0.185185        0.5428971923076924        0        
C3        C        0.5        0.203703        0.5428971923076924        0        
C4        C        0.53125        0.148148        0.5428971923076924        0        
C1        C        0.5        0.24074099999999998        0.5428971923076924        0        
C2        C        0.53125        0.296297        0.5428971923076924        0        
C3        C        0.5        0.314815        0.5428971923076924        0        
C4        C        0.53125        0.259259        0.5428971923076924        0        
C1        C        0.5        0.351852        0.5428971923076924        0        
C2        C        0.53125        0.407408        0.5428971923076924        0        
C3        C        0.5        0.42592500000000005        0.5428971923076924        0        
C4        C        0.53125        0.37037        0.5428971923076924        0        
C1        C        0.5        0.46296300000000007        0.5428971923076924        0        
C2        C        0.53125        0.518519        0.5428971923076924        0        
C3        C        0.5        0.537037        0.5428971923076924        0        
C4        C        0.53125        0.481481        0.5428971923076924        0        
C1        C        0.5        0.574075        0.5428971923076924        0        
C2        C        0.53125        0.62963        0.5428971923076924        0        
C3        C        0.5        0.648148        0.5428971923076924        0        
C4        C        0.53125        0.592592        0.5428971923076924        0        
C1        C        0.5625        0.018519        0.5428971923076924        0        
C2        C        0.59375        0.074075        0.5428971923076924        0        
C3        C        0.5625        0.092592        0.5428971923076924        0        
C4        C        0.59375        0.037037        0.5428971923076924        0        
C1        C        0.5625        0.12963        0.5428971923076924        0        
C2        C        0.59375        0.185185        0.5428971923076924        0        
C3        C        0.5625        0.203703        0.5428971923076924        0        
C4        C        0.59375        0.148148        0.5428971923076924        0        
C1        C        0.5625        0.24074099999999998        0.5428971923076924        0        
C2        C        0.59375        0.296297        0.5428971923076924        0        
C3        C        0.5625        0.314815        0.5428971923076924        0        
C4        C        0.59375        0.259259        0.5428971923076924        0        
C1        C        0.5625        0.351852        0.5428971923076924        0        
C2        C        0.59375        0.407408        0.5428971923076924        0        
C3        C        0.5625        0.42592500000000005        0.5428971923076924        0        
C4        C        0.59375        0.37037        0.5428971923076924        0        
C1        C        0.5625        0.46296300000000007        0.5428971923076924        0        
C2        C        0.59375        0.518519        0.5428971923076924        0        
C3        C        0.5625        0.537037        0.5428971923076924        0        
C4        C        0.59375        0.481481        0.5428971923076924        0        
C1        C        0.5625        0.574075        0.5428971923076924        0        
C2        C        0.59375        0.62963        0.5428971923076924        0        
C3        C        0.5625        0.648148        0.5428971923076924        0        
C4        C        0.59375        0.592592        0.5428971923076924        0        
C1        C        0.625        0.018519        0.5428971923076924        0        
C2        C        0.65625        0.074075        0.5428971923076924        0        
C3        C        0.625        0.092592        0.5428971923076924        0        
C4        C        0.65625        0.037037        0.5428971923076924        0        
C1        C        0.625        0.12963        0.5428971923076924        0        
C2        C        0.65625        0.185185        0.5428971923076924        0        
C3        C        0.625        0.203703        0.5428971923076924        0        
C4        C        0.65625        0.148148        0.5428971923076924        0        
C1        C        0.625        0.24074099999999998        0.5428971923076924        0        
C2        C        0.65625        0.296297        0.5428971923076924        0        
C3        C        0.625        0.314815        0.5428971923076924        0        
C4        C        0.65625        0.259259        0.5428971923076924        0        
C1        C        0.625        0.351852        0.5428971923076924        0        
C2        C        0.65625        0.407408        0.5428971923076924        0        
C3        C        0.625        0.42592500000000005        0.5428971923076924        0        
C4        C        0.65625        0.37037        0.5428971923076924        0        
C1        C        0.625        0.46296300000000007        0.5428971923076924        0        
C2        C        0.65625        0.518519        0.5428971923076924        0        
C3        C        0.625        0.537037        0.5428971923076924        0        
C4        C        0.65625        0.481481        0.5428971923076924        0        
C1        C        0.625        0.574075        0.5428971923076924        0        
C2        C        0.65625        0.62963        0.5428971923076924        0        
C3        C        0.625        0.648148        0.5428971923076924        0        
C4        C        0.65625        0.592592        0.5428971923076924        0        
C1        C        0.6875        0.018519        0.5428971923076924        0        
C2        C        0.71875        0.074075        0.5428971923076924        0        
C3        C        0.6875        0.092592        0.5428971923076924        0        
C4        C        0.71875        0.037037        0.5428971923076924        0        
C1        C        0.6875        0.12963        0.5428971923076924        0        
C2        C        0.71875        0.185185        0.5428971923076924        0        
C3        C        0.6875        0.203703        0.5428971923076924        0        
C4        C        0.71875        0.148148        0.5428971923076924        0        
C1        C        0.6875        0.24074099999999998        0.5428971923076924        0        
C2        C        0.71875        0.296297        0.5428971923076924        0        
C3        C        0.6875        0.314815        0.5428971923076924        0        
C4        C        0.71875        0.259259        0.5428971923076924        0        
C1        C        0.6875        0.351852        0.5428971923076924        0        
C2        C        0.71875        0.407408        0.5428971923076924        0        
C3        C        0.6875        0.42592500000000005        0.5428971923076924        0        
C4        C        0.71875        0.37037        0.5428971923076924        0        
C1        C        0.6875        0.46296300000000007        0.5428971923076924        0        
C2        C        0.71875        0.518519        0.5428971923076924        0        
C3        C        0.6875        0.537037        0.5428971923076924        0        
C4        C        0.71875        0.481481        0.5428971923076924        0        
C1        C        0.6875        0.574075        0.5428971923076924        0        
C2        C        0.71875        0.62963        0.5428971923076924        0        
C3        C        0.6875        0.648148        0.5428971923076924        0        
C4        C        0.71875        0.592592        0.5428971923076924        0        
C1        C        0.75        0.018519        0.5428971923076924        0        
C2        C        0.78125        0.074075        0.5428971923076924        0        
C3        C        0.75        0.092592        0.5428971923076924        0        
C4        C        0.78125        0.037037        0.5428971923076924        0        
C1        C        0.75        0.12963        0.5428971923076924        0        
C2        C        0.78125        0.185185        0.5428971923076924        0        
C3        C        0.75        0.203703        0.5428971923076924        0        
C4        C        0.78125        0.148148        0.5428971923076924        0        
C1        C        0.75        0.24074099999999998        0.5428971923076924        0        
C2        C        0.78125        0.296297        0.5428971923076924        0        
C3        C        0.75        0.314815        0.5428971923076924        0        
C4        C        0.78125        0.259259        0.5428971923076924        0        
C1        C        0.75        0.351852        0.5428971923076924        0        
C2        C        0.78125        0.407408        0.5428971923076924        0        
C3        C        0.75        0.42592500000000005        0.5428971923076924        0        
C4        C        0.78125        0.37037        0.5428971923076924        0        
C1        C        0.75        0.46296300000000007        0.5428971923076924        0        
C2        C        0.78125        0.518519        0.5428971923076924        0        
C3        C        0.75        0.537037        0.5428971923076924        0        
C4        C        0.78125        0.481481        0.5428971923076924        0        
C1        C        0.75        0.574075        0.5428971923076924        0        
C2        C        0.78125        0.62963        0.5428971923076924        0        
C3        C        0.75        0.648148        0.5428971923076924        0        
C4        C        0.78125        0.592592        0.5428971923076924        0        
C1        C        0.8125        0.018519        0.5428971923076924        0        
C2        C        0.84375        0.074075        0.5428971923076924        0        
C3        C        0.8125        0.092592        0.5428971923076924        0        
C4        C        0.84375        0.037037        0.5428971923076924        0        
C1        C        0.8125        0.12963        0.5428971923076924        0        
C2        C        0.84375        0.185185        0.5428971923076924        0        
C3        C        0.8125        0.203703        0.5428971923076924        0        
C4        C        0.84375        0.148148        0.5428971923076924        0        
C1        C        0.8125        0.24074099999999998        0.5428971923076924        0        
C2        C        0.84375        0.296297        0.5428971923076924        0        
C3        C        0.8125        0.314815        0.5428971923076924        0        
C4        C        0.84375        0.259259        0.5428971923076924        0        
C1        C        0.8125        0.351852        0.5428971923076924        0        
C2        C        0.84375        0.407408        0.5428971923076924        0        
C3        C        0.8125        0.42592500000000005        0.5428971923076924        0        
C4        C        0.84375        0.37037        0.5428971923076924        0        
C1        C        0.8125        0.46296300000000007        0.5428971923076924        0        
C2        C        0.84375        0.518519        0.5428971923076924        0        
C3        C        0.8125        0.537037        0.5428971923076924        0        
C4        C        0.84375        0.481481        0.5428971923076924        0        
C1        C        0.8125        0.574075        0.5428971923076924        0        
C2        C        0.84375        0.62963        0.5428971923076924        0        
C3        C        0.8125        0.648148        0.5428971923076924        0        
C4        C        0.84375        0.592592        0.5428971923076924        0        
C1        C        0.875        0.018519        0.5428971923076924        0        
C2        C        0.9062500000000001        0.074075        0.5428971923076924        0        
C3        C        0.875        0.092592        0.5428971923076924        0        
C4        C        0.9062500000000001        0.037037        0.5428971923076924        0        
C1        C        0.875        0.12963        0.5428971923076924        0        
C2        C        0.9062500000000001        0.185185        0.5428971923076924        0        
C3        C        0.875        0.203703        0.5428971923076924        0        
C4        C        0.9062500000000001        0.148148        0.5428971923076924        0        
C1        C        0.875        0.24074099999999998        0.5428971923076924        0        
C2        C        0.9062500000000001        0.296297        0.5428971923076924        0        
C3        C        0.875        0.314815        0.5428971923076924        0        
C4        C        0.9062500000000001        0.259259        0.5428971923076924        0        
C1        C        0.875        0.351852        0.5428971923076924        0        
C2        C        0.9062500000000001        0.407408        0.5428971923076924        0        
C3        C        0.875        0.42592500000000005        0.5428971923076924        0        
C4        C        0.9062500000000001        0.37037        0.5428971923076924        0        
C1        C        0.875        0.46296300000000007        0.5428971923076924        0        
C2        C        0.9062500000000001        0.518519        0.5428971923076924        0        
C3        C        0.875        0.537037        0.5428971923076924        0        
C4        C        0.9062500000000001        0.481481        0.5428971923076924        0        
C1        C        0.875        0.574075        0.5428971923076924        0        
C2        C        0.9062500000000001        0.62963        0.5428971923076924        0        
C3        C        0.875        0.648148        0.5428971923076924        0        
C4        C        0.9062500000000001        0.592592        0.5428971923076924        0        
C1        C        0.9375        0.018519        0.5428971923076924        0        
C2        C        0.9687500000000001        0.074075        0.5428971923076924        0        
C3        C        0.9375        0.092592        0.5428971923076924        0        
C4        C        0.9687500000000001        0.037037        0.5428971923076924        0        
C1        C        0.9375        0.12963        0.5428971923076924        0        
C2        C        0.9687500000000001        0.185185        0.5428971923076924        0        
C3        C        0.9375        0.203703        0.5428971923076924        0        
C4        C        0.9687500000000001        0.148148        0.5428971923076924        0        
C1        C        0.9375        0.24074099999999998        0.5428971923076924        0        
C2        C        0.9687500000000001        0.296297        0.5428971923076924        0        
C3        C        0.9375        0.314815        0.5428971923076924        0        
C4        C        0.9687500000000001        0.259259        0.5428971923076924        0        
C1        C        0.9375        0.351852        0.5428971923076924        0        
C2        C        0.9687500000000001        0.407408        0.5428971923076924        0        
C3        C        0.9375        0.42592500000000005        0.5428971923076924        0        
C4        C        0.9687500000000001        0.37037        0.5428971923076924        0        
C1        C        0.9375        0.46296300000000007        0.5428971923076924        0        
C2        C        0.9687500000000001        0.518519        0.5428971923076924        0        
C3        C        0.9375        0.537037        0.5428971923076924        0        
C4        C        0.9687500000000001        0.481481        0.5428971923076924        0        
C1        C        0.9375        0.574075        0.5428971923076924        0        
C2        C        0.9687500000000001        0.62963        0.5428971923076924        0        
C3        C        0.9375        0.648148        0.5428971923076924        0        
C4        C        0.9687500000000001        0.592592        0.5428971923076924        0        
C1        C        0.0        0.685186        0.5428971923076924        0        
C1        C        0.0625        0.685186        0.5428971923076924        0        
C1        C        0.125        0.685186        0.5428971923076924        0        
C1        C        0.1875        0.685186        0.5428971923076924        0        
C1        C        0.25        0.685186        0.5428971923076924        0        
C1        C        0.3125        0.685186        0.5428971923076924        0        
C1        C        0.375        0.685186        0.5428971923076924        0        
C1        C        0.4375        0.685186        0.5428971923076924        0        
C1        C        0.5        0.685186        0.5428971923076924        0        
C1        C        0.5625        0.685186        0.5428971923076924        0        
C1        C        0.625        0.685186        0.5428971923076924        0        
C1        C        0.6875        0.685186        0.5428971923076924        0        
C1        C        0.75        0.685186        0.5428971923076924        0        
C1        C        0.8125        0.685186        0.5428971923076924        0        
C1        C        0.875        0.685186        0.5428971923076924        0        
C1        C        0.9375        0.685186        0.5428971923076924        0        
C2        C        0.03125        0.740741        0.5428971923076924        0        
C2        C        0.09375        0.740741        0.5428971923076924        0        
C2        C        0.15625        0.740741        0.5428971923076924        0        
C2        C        0.21875        0.740741        0.5428971923076924        0        
C2        C        0.28125        0.740741        0.5428971923076924        0        
C2        C        0.34375        0.740741        0.5428971923076924        0        
C2        C        0.40625        0.740741        0.5428971923076924        0        
C2        C        0.46875        0.740741        0.5428971923076924        0        
C2        C        0.53125        0.740741        0.5428971923076924        0        
C2        C        0.59375        0.740741        0.5428971923076924        0        
C2        C        0.65625        0.740741        0.5428971923076924        0        
C2        C        0.71875        0.740741        0.5428971923076924        0        
C2        C        0.78125        0.740741        0.5428971923076924        0        
C2        C        0.84375        0.740741        0.5428971923076924        0        
C2        C        0.9062500000000001        0.740741        0.5428971923076924        0        
C2        C        0.9687500000000001        0.740741        0.5428971923076924        0        
C3        C        0.0        0.759259        0.5428971923076924        0        
C3        C        0.0625        0.759259        0.5428971923076924        0        
C3        C        0.125        0.759259        0.5428971923076924        0        
C3        C        0.1875        0.759259        0.5428971923076924        0        
C3        C        0.25        0.759259        0.5428971923076924        0        
C3        C        0.3125        0.759259        0.5428971923076924        0        
C3        C        0.375        0.759259        0.5428971923076924        0        
C3        C        0.4375        0.759259        0.5428971923076924        0        
C3        C        0.5        0.759259        0.5428971923076924        0        
C3        C        0.5625        0.759259        0.5428971923076924        0        
C3        C        0.625        0.759259        0.5428971923076924        0        
C3        C        0.6875        0.759259        0.5428971923076924        0        
C3        C        0.75        0.759259        0.5428971923076924        0        
C3        C        0.8125        0.759259        0.5428971923076924        0        
C3        C        0.875        0.759259        0.5428971923076924        0        
C3        C        0.9375        0.759259        0.5428971923076924        0        
C4        C        0.03125        0.703703        0.5428971923076924        0        
C4        C        0.09375        0.703703        0.5428971923076924        0        
C4        C        0.15625        0.703703        0.5428971923076924        0        
C4        C        0.21875        0.703703        0.5428971923076924        0        
C4        C        0.28125        0.703703        0.5428971923076924        0        
C4        C        0.34375        0.703703        0.5428971923076924        0        
C4        C        0.40625        0.703703        0.5428971923076924        0        
C4        C        0.46875        0.703703        0.5428971923076924        0        
C4        C        0.53125        0.703703        0.5428971923076924        0        
C4        C        0.59375        0.703703        0.5428971923076924        0        
C4        C        0.65625        0.703703        0.5428971923076924        0        
C4        C        0.71875        0.703703        0.5428971923076924        0        
C4        C        0.78125        0.703703        0.5428971923076924        0        
C4        C        0.84375        0.703703        0.5428971923076924        0        
C4        C        0.9062500000000001        0.703703        0.5428971923076924        0        
C4        C        0.9687500000000001        0.703703        0.5428971923076924        0        
C1        C        0.0        0.796297        0.5428971923076924        0        
C1        C        0.0625        0.796297        0.5428971923076924        0        
C1        C        0.125        0.796297        0.5428971923076924        0        
C1        C        0.1875        0.796297        0.5428971923076924        0        
C1        C        0.25        0.796297        0.5428971923076924        0        
C1        C        0.3125        0.796297        0.5428971923076924        0        
C1        C        0.375        0.796297        0.5428971923076924        0        
C1        C        0.4375        0.796297        0.5428971923076924        0        
C1        C        0.5        0.796297        0.5428971923076924        0        
C1        C        0.5625        0.796297        0.5428971923076924        0        
C1        C        0.625        0.796297        0.5428971923076924        0        
C1        C        0.6875        0.796297        0.5428971923076924        0        
C1        C        0.75        0.796297        0.5428971923076924        0        
C1        C        0.8125        0.796297        0.5428971923076924        0        
C1        C        0.875        0.796297        0.5428971923076924        0        
C1        C        0.9375        0.796297        0.5428971923076924        0        
C2        C        0.03125        0.851852        0.5428971923076924        0        
C2        C        0.09375        0.851852        0.5428971923076924        0        
C2        C        0.15625        0.851852        0.5428971923076924        0        
C2        C        0.21875        0.851852        0.5428971923076924        0        
C2        C        0.28125        0.851852        0.5428971923076924        0        
C2        C        0.34375        0.851852        0.5428971923076924        0        
C2        C        0.40625        0.851852        0.5428971923076924        0        
C2        C        0.46875        0.851852        0.5428971923076924        0        
C2        C        0.53125        0.851852        0.5428971923076924        0        
C2        C        0.59375        0.851852        0.5428971923076924        0        
C2        C        0.65625        0.851852        0.5428971923076924        0        
C2        C        0.71875        0.851852        0.5428971923076924        0        
C2        C        0.78125        0.851852        0.5428971923076924        0        
C2        C        0.84375        0.851852        0.5428971923076924        0        
C2        C        0.9062500000000001        0.851852        0.5428971923076924        0        
C2        C        0.9687500000000001        0.851852        0.5428971923076924        0        
C3        C        0.0        0.87037        0.5428971923076924        0        
C3        C        0.0625        0.87037        0.5428971923076924        0        
C3        C        0.125        0.87037        0.5428971923076924        0        
C3        C        0.1875        0.87037        0.5428971923076924        0        
C3        C        0.25        0.87037        0.5428971923076924        0        
C3        C        0.3125        0.87037        0.5428971923076924        0        
C3        C        0.375        0.87037        0.5428971923076924        0        
C3        C        0.4375        0.87037        0.5428971923076924        0        
C3        C        0.5        0.87037        0.5428971923076924        0        
C3        C        0.5625        0.87037        0.5428971923076924        0        
C3        C        0.625        0.87037        0.5428971923076924        0        
C3        C        0.6875        0.87037        0.5428971923076924        0        
C3        C        0.75        0.87037        0.5428971923076924        0        
C3        C        0.8125        0.87037        0.5428971923076924        0        
C3        C        0.875        0.87037        0.5428971923076924        0        
C3        C        0.9375        0.87037        0.5428971923076924        0        
C4        C        0.03125        0.814814        0.5428971923076924        0        
C4        C        0.09375        0.814814        0.5428971923076924        0        
C4        C        0.15625        0.814814        0.5428971923076924        0        
C4        C        0.21875        0.814814        0.5428971923076924        0        
C4        C        0.28125        0.814814        0.5428971923076924        0        
C4        C        0.34375        0.814814        0.5428971923076924        0        
C4        C        0.40625        0.814814        0.5428971923076924        0        
C4        C        0.46875        0.814814        0.5428971923076924        0        
C4        C        0.53125        0.814814        0.5428971923076924        0        
C4        C        0.59375        0.814814        0.5428971923076924        0        
C4        C        0.65625        0.814814        0.5428971923076924        0        
C4        C        0.71875        0.814814        0.5428971923076924        0        
C4        C        0.78125        0.814814        0.5428971923076924        0        
C4        C        0.84375        0.814814        0.5428971923076924        0        
C4        C        0.9062500000000001        0.814814        0.5428971923076924        0        
C4        C        0.9687500000000001        0.814814        0.5428971923076924        0        
C1        C        0.0        0.907408        0.5428971923076924        0        
C1        C        0.0625        0.907408        0.5428971923076924        0        
C1        C        0.125        0.907408        0.5428971923076924        0        
C1        C        0.1875        0.907408        0.5428971923076924        0        
C1        C        0.25        0.907408        0.5428971923076924        0        
C1        C        0.3125        0.907408        0.5428971923076924        0        
C1        C        0.375        0.907408        0.5428971923076924        0        
C1        C        0.4375        0.907408        0.5428971923076924        0        
C1        C        0.5        0.907408        0.5428971923076924        0        
C1        C        0.5625        0.907408        0.5428971923076924        0        
C1        C        0.625        0.907408        0.5428971923076924        0        
C1        C        0.6875        0.907408        0.5428971923076924        0        
C1        C        0.75        0.907408        0.5428971923076924        0        
C1        C        0.8125        0.907408        0.5428971923076924        0        
C1        C        0.875        0.907408        0.5428971923076924        0        
C1        C        0.9375        0.907408        0.5428971923076924        0        
C2        C        0.03125        0.962963        0.5428971923076924        0        
C2        C        0.09375        0.962963        0.5428971923076924        0        
C2        C        0.15625        0.962963        0.5428971923076924        0        
C2        C        0.21875        0.962963        0.5428971923076924        0        
C2        C        0.28125        0.962963        0.5428971923076924        0        
C2        C        0.34375        0.962963        0.5428971923076924        0        
C2        C        0.40625        0.962963        0.5428971923076924        0        
C2        C        0.46875        0.962963        0.5428971923076924        0        
C2        C        0.53125        0.962963        0.5428971923076924        0        
C2        C        0.59375        0.962963        0.5428971923076924        0        
C2        C        0.65625        0.962963        0.5428971923076924        0        
C2        C        0.71875        0.962963        0.5428971923076924        0        
C2        C        0.78125        0.962963        0.5428971923076924        0        
C2        C        0.84375        0.962963        0.5428971923076924        0        
C2        C        0.9062500000000001        0.962963        0.5428971923076924        0        
C2        C        0.9687500000000001        0.962963        0.5428971923076924        0        
C3        C        0.0        0.9814809999999999        0.5428971923076924        0        
C3        C        0.0625        0.9814809999999999        0.5428971923076924        0        
C3        C        0.125        0.9814809999999999        0.5428971923076924        0        
C3        C        0.1875        0.9814809999999999        0.5428971923076924        0        
C3        C        0.25        0.9814809999999999        0.5428971923076924        0        
C3        C        0.3125        0.9814809999999999        0.5428971923076924        0        
C3        C        0.375        0.9814809999999999        0.5428971923076924        0        
C3        C        0.4375        0.9814809999999999        0.5428971923076924        0        
C3        C        0.5        0.9814809999999999        0.5428971923076924        0        
C3        C        0.5625        0.9814809999999999        0.5428971923076924        0        
C3        C        0.625        0.9814809999999999        0.5428971923076924        0        
C3        C        0.6875        0.9814809999999999        0.5428971923076924        0        
C3        C        0.75        0.9814809999999999        0.5428971923076924        0        
C3        C        0.8125        0.9814809999999999        0.5428971923076924        0        
C3        C        0.875        0.9814809999999999        0.5428971923076924        0        
C3        C        0.9375        0.9814809999999999        0.5428971923076924        0        
C4        C        0.03125        0.925925        0.5428971923076924        0        
C4        C        0.09375        0.925925        0.5428971923076924        0        
C4        C        0.15625        0.925925        0.5428971923076924        0        
C4        C        0.21875        0.925925        0.5428971923076924        0        
C4        C        0.28125        0.925925        0.5428971923076924        0        
C4        C        0.34375        0.925925        0.5428971923076924        0        
C4        C        0.40625        0.925925        0.5428971923076924        0        
C4        C        0.46875        0.925925        0.5428971923076924        0        
C4        C        0.53125        0.925925        0.5428971923076924        0        
C4        C        0.59375        0.925925        0.5428971923076924        0        
C4        C        0.65625        0.925925        0.5428971923076924        0        
C4        C        0.71875        0.925925        0.5428971923076924        0        
C4        C        0.78125        0.925925        0.5428971923076924        0        
C4        C        0.84375        0.925925        0.5428971923076924        0        
C4        C        0.9062500000000001        0.925925        0.5428971923076924        0        
C4        C        0.9687500000000001        0.925925        0.5428971923076924        0        
O_OH        O        0.0        0.018519        0.021551217948717945        -0.64        
H_OH        H        -0.020766666467905922        0.028294399665589734        0.0        0.44        
O_CO        O        0.0        0.203703        0.021551217948717945        -0.5        
O_CO        O        0.0        0.351852        0.021551217948717945        -0.5        
O_OH        O        0.0        0.537037        0.021551217948717945        -0.64        
H_OH        H        -0.01999514102700753        0.5483817256197333        0.0        0.44        
O_CO        O        0.25        0.018519        0.021551217948717945        -0.5        
O_OH        O        0.25        0.203703        0.021551217948717945        -0.64        
H_OH        H        0.25088774858310203        0.2271387368871244        0.0        0.44        
O_CO        O        0.25        0.351852        0.021551217948717945        -0.5        
O_CO        O        0.25        0.537037        0.021551217948717945        -0.5        
O_OH        O        0.5        0.018519        0.021551217948717945        -0.64        
H_OH        H        0.4980302952681299        0.0418851172578075        0.0        0.44        
O_CO        O        0.5        0.203703        0.021551217948717945        -0.5        
O_OH        O        0.5        0.351852        0.021551217948717945        -0.64        
H_OH        H        0.5224816053915249        0.35602230580419053        0.0        0.44        
O_CO        O        0.5        0.537037        0.021551217948717945        -0.5        
O_CO        O        0.75        0.018519        0.021551217948717945        -0.5        
O_OH        O        0.75        0.203703        0.021551217948717945        -0.64        
H_OH        H        0.7647831643998068        0.22158426151340624        0.0        0.44        
O_OH        O        0.75        0.351852        0.021551217948717945        -0.64        
H_OH        H        0.7556056487673231        0.37458846494163556        0.0        0.44        
O_OH        O        0.75        0.537037        0.021551217948717945        -0.64        
H_OH        H        0.7288677850792374        0.5459485984744414        0.0        0.44        
O_CO        O        0.0        0.685186        0.021551217948717945        -0.5        
O_OH        O        0.25        0.685186        0.021551217948717945        -0.64        
H_OH        H        0.23889238313984876        0.7056807090705778        0.0        0.44        
O_OH        O        0.5        0.685186        0.021551217948717945        -0.64        
H_OH        H        0.47920950475634994        0.6949078718239866        0.0        0.44        
O_OH        O        0.75        0.685186        0.021551217948717945        -0.64        
H_OH        H        0.7658089272035292        0.7021172548231537        0.0        0.44        
O_OH        O        0.0        0.87037        0.021551217948717945        -0.64        
H_OH        H        -0.02070587058395294        0.8802803854403851        0.0        0.44        
O_CO        O        0.25        0.87037        0.021551217948717945        -0.5        
O_CO        O        0.5        0.87037        0.021551217948717945        -0.5        
O_CO        O        0.75        0.87037        0.021551217948717945        -0.5        
O_OH        O        0.0        0.018519        0.6347563461538461        -0.64        
H_OH        H        -0.004604649566335273        0.04149112193382751        0.6563075641025641        0.44        
O_CO        O        0.0        0.203703        0.6347563461538461        -0.5        
O_CO        O        0.0        0.351852        0.6347563461538461        -0.5        
O_OH        O        0.0        0.537037        0.6347563461538461        -0.64        
H_OH        H        0.013794715729584123        0.5557321941722264        0.6563075641025641        0.44        
O_CO        O        0.25        0.018519        0.6347563461538461        -0.5        
O_OH        O        0.25        0.203703        0.6347563461538461        -0.64        
H_OH        H        0.25731017308557785        0.22592336293198148        0.6563075641025641        0.44        
O_CO        O        0.25        0.351852        0.6347563461538461        -0.5        
O_CO        O        0.25        0.537037        0.6347563461538461        -0.5        
O_OH        O        0.5        0.018519        0.6347563461538461        -0.64        
H_OH        H        0.48069199263170154        0.031055562389683978        0.6563075641025641        0.44        
O_CO        O        0.5        0.203703        0.6347563461538461        -0.5        
O_OH        O        0.5        0.351852        0.6347563461538461        -0.64        
H_OH        H        0.5152641084261287        0.3693021952717582        0.6563075641025641        0.44        
O_CO        O        0.5        0.537037        0.6347563461538461        -0.5        
O_CO        O        0.75        0.018519        0.6347563461538461        -0.5        
O_OH        O        0.75        0.203703        0.6347563461538461        -0.64        
H_OH        H        0.7462944027635778        0.22684587271241655        0.6563075641025641        0.44        
O_OH        O        0.75        0.351852        0.6347563461538461        -0.64        
H_OH        H        0.7414312317362147        0.3735932477032225        0.6563075641025641        0.44        
O_OH        O        0.75        0.537037        0.6347563461538461        -0.64        
H_OH        H        0.7468455746389818        0.5602658068516829        0.6563075641025641        0.44        
O_CO        O        0.0        0.685186        0.6347563461538461        -0.5        
O_OH        O        0.25        0.685186        0.6347563461538461        -0.64        
H_OH        H        0.227433426960659        0.688840783461681        0.6563075641025641        0.44        
O_OH        O        0.5        0.685186        0.6347563461538461        -0.64        
H_OH        H        0.5144893543973122        0.7033189473369067        0.6563075641025641        0.44        
O_OH        O        0.75        0.685186        0.6347563461538461        -0.64        
H_OH        H        0.7618237617941671        0.7052540216217786        0.6563075641025641        0.44        
O_OH        O        0.0        0.87037        0.6347563461538461        -0.64        
H_OH        H        -0.019540301952200075        0.8825213206653926        0.6563075641025641        0.44        
O_CO        O        0.25        0.87037        0.6347563461538461        -0.5        
O_CO        O        0.5        0.87037        0.6347563461538461        -0.5        
O_CO        O        0.75        0.87037        0.6347563461538461        -0.5        
