data_graphite_ortho

_audit_creation_method RASPA-1.0
_audit_creation_date 2012-2-3
_audit_author_name 'David Dubbeldam'

_cell_length_a    39.36    
_cell_length_b    38.34    
_cell_length_c    25.2    
_cell_angle_alpha 90
_cell_angle_beta  90
_cell_angle_gamma 90
_cell_volume      38028.37      

_symmetry_cell_setting          triclinic
_symmetry_space_group_name_Hall 'P 1'
_symmetry_space_group_name_H-M  'P 1'
_symmetry_Int_Tables_number     1

_symmetry_equiv_pos_as_xyz 'x,y,z'

loop_
_atom_site_label
_atom_site_type_symbol
_atom_site_fract_x
_atom_site_fract_y
_atom_site_fract_z
_atom_site_charge
C_FG        C        0.0        0.018519        0.0921325        0.08        
C2        C        0.03125        0.074075        0.0921325        0        
C3        C        0.0        0.092592        0.0921325        0        
C4        C        0.03125        0.037037        0.0921325        0        
C1        C        0.0        0.12963        0.0921325        0        
C2        C        0.03125        0.185185        0.0921325        0        
C_FG        C        0.0        0.203703        0.0921325        0.08        
C4        C        0.03125        0.148148        0.0921325        0        
C1        C        0.0        0.24074099999999998        0.0921325        0        
C2        C        0.03125        0.296297        0.0921325        0        
C3        C        0.0        0.314815        0.0921325        0        
C4        C        0.03125        0.259259        0.0921325        0        
C_FG        C        0.0        0.351852        0.0921325        0.08        
C2        C        0.03125        0.407408        0.0921325        0        
C3        C        0.0        0.42592500000000005        0.0921325        0        
C4        C        0.03125        0.37037        0.0921325        0        
C1        C        0.0        0.46296300000000007        0.0921325        0        
C2        C        0.03125        0.518519        0.0921325        0        
C_FG        C        0.0        0.537037        0.0921325        0.08        
C4        C        0.03125        0.481481        0.0921325        0        
C1        C        0.0        0.574075        0.0921325        0        
C2        C        0.03125        0.62963        0.0921325        0        
C3        C        0.0        0.648148        0.0921325        0        
C4        C        0.03125        0.592592        0.0921325        0        
C1        C        0.0625        0.018519        0.0921325        0        
C2        C        0.09375        0.074075        0.0921325        0        
C3        C        0.0625        0.092592        0.0921325        0        
C4        C        0.09375        0.037037        0.0921325        0        
C1        C        0.0625        0.12963        0.0921325        0        
C2        C        0.09375        0.185185        0.0921325        0        
C3        C        0.0625        0.203703        0.0921325        0        
C4        C        0.09375        0.148148        0.0921325        0        
C1        C        0.0625        0.24074099999999998        0.0921325        0        
C2        C        0.09375        0.296297        0.0921325        0        
C3        C        0.0625        0.314815        0.0921325        0        
C4        C        0.09375        0.259259        0.0921325        0        
C1        C        0.0625        0.351852        0.0921325        0        
C2        C        0.09375        0.407408        0.0921325        0        
C3        C        0.0625        0.42592500000000005        0.0921325        0        
C4        C        0.09375        0.37037        0.0921325        0        
C1        C        0.0625        0.46296300000000007        0.0921325        0        
C2        C        0.09375        0.518519        0.0921325        0        
C3        C        0.0625        0.537037        0.0921325        0        
C4        C        0.09375        0.481481        0.0921325        0        
C1        C        0.0625        0.574075        0.0921325        0        
C2        C        0.09375        0.62963        0.0921325        0        
C3        C        0.0625        0.648148        0.0921325        0        
C4        C        0.09375        0.592592        0.0921325        0        
C1        C        0.125        0.018519        0.0921325        0        
C2        C        0.15625        0.074075        0.0921325        0        
C3        C        0.125        0.092592        0.0921325        0        
C4        C        0.15625        0.037037        0.0921325        0        
C1        C        0.125        0.12963        0.0921325        0        
C2        C        0.15625        0.185185        0.0921325        0        
C3        C        0.125        0.203703        0.0921325        0        
C4        C        0.15625        0.148148        0.0921325        0        
C1        C        0.125        0.24074099999999998        0.0921325        0        
C2        C        0.15625        0.296297        0.0921325        0        
C3        C        0.125        0.314815        0.0921325        0        
C4        C        0.15625        0.259259        0.0921325        0        
C1        C        0.125        0.351852        0.0921325        0        
C2        C        0.15625        0.407408        0.0921325        0        
C3        C        0.125        0.42592500000000005        0.0921325        0        
C4        C        0.15625        0.37037        0.0921325        0        
C1        C        0.125        0.46296300000000007        0.0921325        0        
C2        C        0.15625        0.518519        0.0921325        0        
C3        C        0.125        0.537037        0.0921325        0        
C4        C        0.15625        0.481481        0.0921325        0        
C1        C        0.125        0.574075        0.0921325        0        
C2        C        0.15625        0.62963        0.0921325        0        
C3        C        0.125        0.648148        0.0921325        0        
C4        C        0.15625        0.592592        0.0921325        0        
C1        C        0.1875        0.018519        0.0921325        0        
C2        C        0.21875        0.074075        0.0921325        0        
C3        C        0.1875        0.092592        0.0921325        0        
C4        C        0.21875        0.037037        0.0921325        0        
C1        C        0.1875        0.12963        0.0921325        0        
C2        C        0.21875        0.185185        0.0921325        0        
C3        C        0.1875        0.203703        0.0921325        0        
C4        C        0.21875        0.148148        0.0921325        0        
C1        C        0.1875        0.24074099999999998        0.0921325        0        
C2        C        0.21875        0.296297        0.0921325        0        
C3        C        0.1875        0.314815        0.0921325        0        
C4        C        0.21875        0.259259        0.0921325        0        
C1        C        0.1875        0.351852        0.0921325        0        
C2        C        0.21875        0.407408        0.0921325        0        
C3        C        0.1875        0.42592500000000005        0.0921325        0        
C4        C        0.21875        0.37037        0.0921325        0        
C1        C        0.1875        0.46296300000000007        0.0921325        0        
C2        C        0.21875        0.518519        0.0921325        0        
C3        C        0.1875        0.537037        0.0921325        0        
C4        C        0.21875        0.481481        0.0921325        0        
C1        C        0.1875        0.574075        0.0921325        0        
C2        C        0.21875        0.62963        0.0921325        0        
C3        C        0.1875        0.648148        0.0921325        0        
C4        C        0.21875        0.592592        0.0921325        0        
C_FG        C        0.25        0.018519        0.0921325        0.08        
C2        C        0.28125        0.074075        0.0921325        0        
C3        C        0.25        0.092592        0.0921325        0        
C4        C        0.28125        0.037037        0.0921325        0        
C1        C        0.25        0.12963        0.0921325        0        
C2        C        0.28125        0.185185        0.0921325        0        
C_FG        C        0.25        0.203703        0.0921325        0.08        
C4        C        0.28125        0.148148        0.0921325        0        
C1        C        0.25        0.24074099999999998        0.0921325        0        
C2        C        0.28125        0.296297        0.0921325        0        
C3        C        0.25        0.314815        0.0921325        0        
C4        C        0.28125        0.259259        0.0921325        0        
C_FG        C        0.25        0.351852        0.0921325        0.08        
C2        C        0.28125        0.407408        0.0921325        0        
C3        C        0.25        0.42592500000000005        0.0921325        0        
C4        C        0.28125        0.37037        0.0921325        0        
C1        C        0.25        0.46296300000000007        0.0921325        0        
C2        C        0.28125        0.518519        0.0921325        0        
C_FG        C        0.25        0.537037        0.0921325        0.08        
C4        C        0.28125        0.481481        0.0921325        0        
C1        C        0.25        0.574075        0.0921325        0        
C2        C        0.28125        0.62963        0.0921325        0        
C3        C        0.25        0.648148        0.0921325        0        
C4        C        0.28125        0.592592        0.0921325        0        
C1        C        0.3125        0.018519        0.0921325        0        
C2        C        0.34375        0.074075        0.0921325        0        
C3        C        0.3125        0.092592        0.0921325        0        
C4        C        0.34375        0.037037        0.0921325        0        
C1        C        0.3125        0.12963        0.0921325        0        
C2        C        0.34375        0.185185        0.0921325        0        
C3        C        0.3125        0.203703        0.0921325        0        
C4        C        0.34375        0.148148        0.0921325        0        
C1        C        0.3125        0.24074099999999998        0.0921325        0        
C2        C        0.34375        0.296297        0.0921325        0        
C3        C        0.3125        0.314815        0.0921325        0        
C4        C        0.34375        0.259259        0.0921325        0        
C1        C        0.3125        0.351852        0.0921325        0        
C2        C        0.34375        0.407408        0.0921325        0        
C3        C        0.3125        0.42592500000000005        0.0921325        0        
C4        C        0.34375        0.37037        0.0921325        0        
C1        C        0.3125        0.46296300000000007        0.0921325        0        
C2        C        0.34375        0.518519        0.0921325        0        
C3        C        0.3125        0.537037        0.0921325        0        
C4        C        0.34375        0.481481        0.0921325        0        
C1        C        0.3125        0.574075        0.0921325        0        
C2        C        0.34375        0.62963        0.0921325        0        
C3        C        0.3125        0.648148        0.0921325        0        
C4        C        0.34375        0.592592        0.0921325        0        
C1        C        0.375        0.018519        0.0921325        0        
C2        C        0.40625        0.074075        0.0921325        0        
C3        C        0.375        0.092592        0.0921325        0        
C4        C        0.40625        0.037037        0.0921325        0        
C1        C        0.375        0.12963        0.0921325        0        
C2        C        0.40625        0.185185        0.0921325        0        
C3        C        0.375        0.203703        0.0921325        0        
C4        C        0.40625        0.148148        0.0921325        0        
C1        C        0.375        0.24074099999999998        0.0921325        0        
C2        C        0.40625        0.296297        0.0921325        0        
C3        C        0.375        0.314815        0.0921325        0        
C4        C        0.40625        0.259259        0.0921325        0        
C1        C        0.375        0.351852        0.0921325        0        
C2        C        0.40625        0.407408        0.0921325        0        
C3        C        0.375        0.42592500000000005        0.0921325        0        
C4        C        0.40625        0.37037        0.0921325        0        
C1        C        0.375        0.46296300000000007        0.0921325        0        
C2        C        0.40625        0.518519        0.0921325        0        
C3        C        0.375        0.537037        0.0921325        0        
C4        C        0.40625        0.481481        0.0921325        0        
C1        C        0.375        0.574075        0.0921325        0        
C2        C        0.40625        0.62963        0.0921325        0        
C3        C        0.375        0.648148        0.0921325        0        
C4        C        0.40625        0.592592        0.0921325        0        
C1        C        0.4375        0.018519        0.0921325        0        
C2        C        0.46875        0.074075        0.0921325        0        
C3        C        0.4375        0.092592        0.0921325        0        
C4        C        0.46875        0.037037        0.0921325        0        
C1        C        0.4375        0.12963        0.0921325        0        
C2        C        0.46875        0.185185        0.0921325        0        
C3        C        0.4375        0.203703        0.0921325        0        
C4        C        0.46875        0.148148        0.0921325        0        
C1        C        0.4375        0.24074099999999998        0.0921325        0        
C2        C        0.46875        0.296297        0.0921325        0        
C3        C        0.4375        0.314815        0.0921325        0        
C4        C        0.46875        0.259259        0.0921325        0        
C1        C        0.4375        0.351852        0.0921325        0        
C2        C        0.46875        0.407408        0.0921325        0        
C3        C        0.4375        0.42592500000000005        0.0921325        0        
C4        C        0.46875        0.37037        0.0921325        0        
C1        C        0.4375        0.46296300000000007        0.0921325        0        
C2        C        0.46875        0.518519        0.0921325        0        
C3        C        0.4375        0.537037        0.0921325        0        
C4        C        0.46875        0.481481        0.0921325        0        
C1        C        0.4375        0.574075        0.0921325        0        
C2        C        0.46875        0.62963        0.0921325        0        
C3        C        0.4375        0.648148        0.0921325        0        
C4        C        0.46875        0.592592        0.0921325        0        
C1        C        0.5        0.018519        0.0921325        0        
C2        C        0.53125        0.074075        0.0921325        0        
C3        C        0.5        0.092592        0.0921325        0        
C4        C        0.53125        0.037037        0.0921325        0        
C1        C        0.5        0.12963        0.0921325        0        
C2        C        0.53125        0.185185        0.0921325        0        
C3        C        0.5        0.203703        0.0921325        0        
C4        C        0.53125        0.148148        0.0921325        0        
C1        C        0.5        0.24074099999999998        0.0921325        0        
C2        C        0.53125        0.296297        0.0921325        0        
C3        C        0.5        0.314815        0.0921325        0        
C4        C        0.53125        0.259259        0.0921325        0        
C1        C        0.5        0.351852        0.0921325        0        
C2        C        0.53125        0.407408        0.0921325        0        
C3        C        0.5        0.42592500000000005        0.0921325        0        
C4        C        0.53125        0.37037        0.0921325        0        
C1        C        0.5        0.46296300000000007        0.0921325        0        
C2        C        0.53125        0.518519        0.0921325        0        
C3        C        0.5        0.537037        0.0921325        0        
C4        C        0.53125        0.481481        0.0921325        0        
C1        C        0.5        0.574075        0.0921325        0        
C2        C        0.53125        0.62963        0.0921325        0        
C3        C        0.5        0.648148        0.0921325        0        
C4        C        0.53125        0.592592        0.0921325        0        
C1        C        0.5625        0.018519        0.0921325        0        
C2        C        0.59375        0.074075        0.0921325        0        
C3        C        0.5625        0.092592        0.0921325        0        
C4        C        0.59375        0.037037        0.0921325        0        
C1        C        0.5625        0.12963        0.0921325        0        
C2        C        0.59375        0.185185        0.0921325        0        
C3        C        0.5625        0.203703        0.0921325        0        
C4        C        0.59375        0.148148        0.0921325        0        
C1        C        0.5625        0.24074099999999998        0.0921325        0        
C2        C        0.59375        0.296297        0.0921325        0        
C3        C        0.5625        0.314815        0.0921325        0        
C4        C        0.59375        0.259259        0.0921325        0        
C1        C        0.5625        0.351852        0.0921325        0        
C2        C        0.59375        0.407408        0.0921325        0        
C3        C        0.5625        0.42592500000000005        0.0921325        0        
C4        C        0.59375        0.37037        0.0921325        0        
C1        C        0.5625        0.46296300000000007        0.0921325        0        
C2        C        0.59375        0.518519        0.0921325        0        
C3        C        0.5625        0.537037        0.0921325        0        
C4        C        0.59375        0.481481        0.0921325        0        
C1        C        0.5625        0.574075        0.0921325        0        
C2        C        0.59375        0.62963        0.0921325        0        
C3        C        0.5625        0.648148        0.0921325        0        
C4        C        0.59375        0.592592        0.0921325        0        
C1        C        0.625        0.018519        0.0921325        0        
C2        C        0.65625        0.074075        0.0921325        0        
C3        C        0.625        0.092592        0.0921325        0        
C4        C        0.65625        0.037037        0.0921325        0        
C1        C        0.625        0.12963        0.0921325        0        
C2        C        0.65625        0.185185        0.0921325        0        
C3        C        0.625        0.203703        0.0921325        0        
C4        C        0.65625        0.148148        0.0921325        0        
C1        C        0.625        0.24074099999999998        0.0921325        0        
C2        C        0.65625        0.296297        0.0921325        0        
C3        C        0.625        0.314815        0.0921325        0        
C4        C        0.65625        0.259259        0.0921325        0        
C1        C        0.625        0.351852        0.0921325        0        
C2        C        0.65625        0.407408        0.0921325        0        
C3        C        0.625        0.42592500000000005        0.0921325        0        
C4        C        0.65625        0.37037        0.0921325        0        
C1        C        0.625        0.46296300000000007        0.0921325        0        
C2        C        0.65625        0.518519        0.0921325        0        
C3        C        0.625        0.537037        0.0921325        0        
C4        C        0.65625        0.481481        0.0921325        0        
C1        C        0.625        0.574075        0.0921325        0        
C2        C        0.65625        0.62963        0.0921325        0        
C3        C        0.625        0.648148        0.0921325        0        
C4        C        0.65625        0.592592        0.0921325        0        
C1        C        0.6875        0.018519        0.0921325        0        
C2        C        0.71875        0.074075        0.0921325        0        
C3        C        0.6875        0.092592        0.0921325        0        
C4        C        0.71875        0.037037        0.0921325        0        
C1        C        0.6875        0.12963        0.0921325        0        
C2        C        0.71875        0.185185        0.0921325        0        
C3        C        0.6875        0.203703        0.0921325        0        
C4        C        0.71875        0.148148        0.0921325        0        
C1        C        0.6875        0.24074099999999998        0.0921325        0        
C2        C        0.71875        0.296297        0.0921325        0        
C3        C        0.6875        0.314815        0.0921325        0        
C4        C        0.71875        0.259259        0.0921325        0        
C1        C        0.6875        0.351852        0.0921325        0        
C2        C        0.71875        0.407408        0.0921325        0        
C3        C        0.6875        0.42592500000000005        0.0921325        0        
C4        C        0.71875        0.37037        0.0921325        0        
C1        C        0.6875        0.46296300000000007        0.0921325        0        
C2        C        0.71875        0.518519        0.0921325        0        
C3        C        0.6875        0.537037        0.0921325        0        
C4        C        0.71875        0.481481        0.0921325        0        
C1        C        0.6875        0.574075        0.0921325        0        
C2        C        0.71875        0.62963        0.0921325        0        
C3        C        0.6875        0.648148        0.0921325        0        
C4        C        0.71875        0.592592        0.0921325        0        
C_FG        C        0.75        0.018519        0.0921325        0.08        
C2        C        0.78125        0.074075        0.0921325        0        
C3        C        0.75        0.092592        0.0921325        0        
C4        C        0.78125        0.037037        0.0921325        0        
C1        C        0.75        0.12963        0.0921325        0        
C2        C        0.78125        0.185185        0.0921325        0        
C_FG        C        0.75        0.203703        0.0921325        0.08        
C4        C        0.78125        0.148148        0.0921325        0        
C1        C        0.75        0.24074099999999998        0.0921325        0        
C2        C        0.78125        0.296297        0.0921325        0        
C3        C        0.75        0.314815        0.0921325        0        
C4        C        0.78125        0.259259        0.0921325        0        
C_FG        C        0.75        0.351852        0.0921325        0.08        
C2        C        0.78125        0.407408        0.0921325        0        
C3        C        0.75        0.42592500000000005        0.0921325        0        
C4        C        0.78125        0.37037        0.0921325        0        
C1        C        0.75        0.46296300000000007        0.0921325        0        
C2        C        0.78125        0.518519        0.0921325        0        
C_FG        C        0.75        0.537037        0.0921325        0.08        
C4        C        0.78125        0.481481        0.0921325        0        
C1        C        0.75        0.574075        0.0921325        0        
C2        C        0.78125        0.62963        0.0921325        0        
C3        C        0.75        0.648148        0.0921325        0        
C4        C        0.78125        0.592592        0.0921325        0        
C1        C        0.8125        0.018519        0.0921325        0        
C2        C        0.84375        0.074075        0.0921325        0        
C3        C        0.8125        0.092592        0.0921325        0        
C4        C        0.84375        0.037037        0.0921325        0        
C1        C        0.8125        0.12963        0.0921325        0        
C2        C        0.84375        0.185185        0.0921325        0        
C3        C        0.8125        0.203703        0.0921325        0        
C4        C        0.84375        0.148148        0.0921325        0        
C1        C        0.8125        0.24074099999999998        0.0921325        0        
C2        C        0.84375        0.296297        0.0921325        0        
C3        C        0.8125        0.314815        0.0921325        0        
C4        C        0.84375        0.259259        0.0921325        0        
C1        C        0.8125        0.351852        0.0921325        0        
C2        C        0.84375        0.407408        0.0921325        0        
C3        C        0.8125        0.42592500000000005        0.0921325        0        
C4        C        0.84375        0.37037        0.0921325        0        
C1        C        0.8125        0.46296300000000007        0.0921325        0        
C2        C        0.84375        0.518519        0.0921325        0        
C3        C        0.8125        0.537037        0.0921325        0        
C4        C        0.84375        0.481481        0.0921325        0        
C1        C        0.8125        0.574075        0.0921325        0        
C2        C        0.84375        0.62963        0.0921325        0        
C3        C        0.8125        0.648148        0.0921325        0        
C4        C        0.84375        0.592592        0.0921325        0        
C1        C        0.875        0.018519        0.0921325        0        
C2        C        0.9062500000000001        0.074075        0.0921325        0        
C3        C        0.875        0.092592        0.0921325        0        
C4        C        0.9062500000000001        0.037037        0.0921325        0        
C1        C        0.875        0.12963        0.0921325        0        
C2        C        0.9062500000000001        0.185185        0.0921325        0        
C3        C        0.875        0.203703        0.0921325        0        
C4        C        0.9062500000000001        0.148148        0.0921325        0        
C1        C        0.875        0.24074099999999998        0.0921325        0        
C2        C        0.9062500000000001        0.296297        0.0921325        0        
C3        C        0.875        0.314815        0.0921325        0        
C4        C        0.9062500000000001        0.259259        0.0921325        0        
C1        C        0.875        0.351852        0.0921325        0        
C2        C        0.9062500000000001        0.407408        0.0921325        0        
C3        C        0.875        0.42592500000000005        0.0921325        0        
C4        C        0.9062500000000001        0.37037        0.0921325        0        
C1        C        0.875        0.46296300000000007        0.0921325        0        
C2        C        0.9062500000000001        0.518519        0.0921325        0        
C3        C        0.875        0.537037        0.0921325        0        
C4        C        0.9062500000000001        0.481481        0.0921325        0        
C1        C        0.875        0.574075        0.0921325        0        
C2        C        0.9062500000000001        0.62963        0.0921325        0        
C3        C        0.875        0.648148        0.0921325        0        
C4        C        0.9062500000000001        0.592592        0.0921325        0        
C1        C        0.9375        0.018519        0.0921325        0        
C2        C        0.9687500000000001        0.074075        0.0921325        0        
C3        C        0.9375        0.092592        0.0921325        0        
C4        C        0.9687500000000001        0.037037        0.0921325        0        
C1        C        0.9375        0.12963        0.0921325        0        
C2        C        0.9687500000000001        0.185185        0.0921325        0        
C3        C        0.9375        0.203703        0.0921325        0        
C4        C        0.9687500000000001        0.148148        0.0921325        0        
C1        C        0.9375        0.24074099999999998        0.0921325        0        
C2        C        0.9687500000000001        0.296297        0.0921325        0        
C3        C        0.9375        0.314815        0.0921325        0        
C4        C        0.9687500000000001        0.259259        0.0921325        0        
C1        C        0.9375        0.351852        0.0921325        0        
C2        C        0.9687500000000001        0.407408        0.0921325        0        
C3        C        0.9375        0.42592500000000005        0.0921325        0        
C4        C        0.9687500000000001        0.37037        0.0921325        0        
C1        C        0.9375        0.46296300000000007        0.0921325        0        
C2        C        0.9687500000000001        0.518519        0.0921325        0        
C3        C        0.9375        0.537037        0.0921325        0        
C4        C        0.9687500000000001        0.481481        0.0921325        0        
C1        C        0.9375        0.574075        0.0921325        0        
C2        C        0.9687500000000001        0.62963        0.0921325        0        
C3        C        0.9375        0.648148        0.0921325        0        
C4        C        0.9687500000000001        0.592592        0.0921325        0        
C_FG        C        0.0        0.685186        0.0921325        0.08        
C1        C        0.0625        0.685186        0.0921325        0        
C1        C        0.125        0.685186        0.0921325        0        
C1        C        0.1875        0.685186        0.0921325        0        
C_FG        C        0.25        0.685186        0.0921325        0.08        
C1        C        0.3125        0.685186        0.0921325        0        
C1        C        0.375        0.685186        0.0921325        0        
C1        C        0.4375        0.685186        0.0921325        0        
C1        C        0.5        0.685186        0.0921325        0        
C1        C        0.5625        0.685186        0.0921325        0        
C1        C        0.625        0.685186        0.0921325        0        
C1        C        0.6875        0.685186        0.0921325        0        
C_FG        C        0.75        0.685186        0.0921325        0.08        
C1        C        0.8125        0.685186        0.0921325        0        
C1        C        0.875        0.685186        0.0921325        0        
C1        C        0.9375        0.685186        0.0921325        0        
C2        C        0.03125        0.740741        0.0921325        0        
C2        C        0.09375        0.740741        0.0921325        0        
C2        C        0.15625        0.740741        0.0921325        0        
C2        C        0.21875        0.740741        0.0921325        0        
C2        C        0.28125        0.740741        0.0921325        0        
C2        C        0.34375        0.740741        0.0921325        0        
C2        C        0.40625        0.740741        0.0921325        0        
C2        C        0.46875        0.740741        0.0921325        0        
C2        C        0.53125        0.740741        0.0921325        0        
C2        C        0.59375        0.740741        0.0921325        0        
C2        C        0.65625        0.740741        0.0921325        0        
C2        C        0.71875        0.740741        0.0921325        0        
C2        C        0.78125        0.740741        0.0921325        0        
C2        C        0.84375        0.740741        0.0921325        0        
C2        C        0.9062500000000001        0.740741        0.0921325        0        
C2        C        0.9687500000000001        0.740741        0.0921325        0        
C3        C        0.0        0.759259        0.0921325        0        
C3        C        0.0625        0.759259        0.0921325        0        
C3        C        0.125        0.759259        0.0921325        0        
C3        C        0.1875        0.759259        0.0921325        0        
C3        C        0.25        0.759259        0.0921325        0        
C3        C        0.3125        0.759259        0.0921325        0        
C3        C        0.375        0.759259        0.0921325        0        
C3        C        0.4375        0.759259        0.0921325        0        
C3        C        0.5        0.759259        0.0921325        0        
C3        C        0.5625        0.759259        0.0921325        0        
C3        C        0.625        0.759259        0.0921325        0        
C3        C        0.6875        0.759259        0.0921325        0        
C3        C        0.75        0.759259        0.0921325        0        
C3        C        0.8125        0.759259        0.0921325        0        
C3        C        0.875        0.759259        0.0921325        0        
C3        C        0.9375        0.759259        0.0921325        0        
C4        C        0.03125        0.703703        0.0921325        0        
C4        C        0.09375        0.703703        0.0921325        0        
C4        C        0.15625        0.703703        0.0921325        0        
C4        C        0.21875        0.703703        0.0921325        0        
C4        C        0.28125        0.703703        0.0921325        0        
C4        C        0.34375        0.703703        0.0921325        0        
C4        C        0.40625        0.703703        0.0921325        0        
C4        C        0.46875        0.703703        0.0921325        0        
C4        C        0.53125        0.703703        0.0921325        0        
C4        C        0.59375        0.703703        0.0921325        0        
C4        C        0.65625        0.703703        0.0921325        0        
C4        C        0.71875        0.703703        0.0921325        0        
C4        C        0.78125        0.703703        0.0921325        0        
C4        C        0.84375        0.703703        0.0921325        0        
C4        C        0.9062500000000001        0.703703        0.0921325        0        
C4        C        0.9687500000000001        0.703703        0.0921325        0        
C1        C        0.0        0.796297        0.0921325        0        
C1        C        0.0625        0.796297        0.0921325        0        
C1        C        0.125        0.796297        0.0921325        0        
C1        C        0.1875        0.796297        0.0921325        0        
C1        C        0.25        0.796297        0.0921325        0        
C1        C        0.3125        0.796297        0.0921325        0        
C1        C        0.375        0.796297        0.0921325        0        
C1        C        0.4375        0.796297        0.0921325        0        
C1        C        0.5        0.796297        0.0921325        0        
C1        C        0.5625        0.796297        0.0921325        0        
C1        C        0.625        0.796297        0.0921325        0        
C1        C        0.6875        0.796297        0.0921325        0        
C1        C        0.75        0.796297        0.0921325        0        
C1        C        0.8125        0.796297        0.0921325        0        
C1        C        0.875        0.796297        0.0921325        0        
C1        C        0.9375        0.796297        0.0921325        0        
C2        C        0.03125        0.851852        0.0921325        0        
C2        C        0.09375        0.851852        0.0921325        0        
C2        C        0.15625        0.851852        0.0921325        0        
C2        C        0.21875        0.851852        0.0921325        0        
C2        C        0.28125        0.851852        0.0921325        0        
C2        C        0.34375        0.851852        0.0921325        0        
C2        C        0.40625        0.851852        0.0921325        0        
C2        C        0.46875        0.851852        0.0921325        0        
C2        C        0.53125        0.851852        0.0921325        0        
C2        C        0.59375        0.851852        0.0921325        0        
C2        C        0.65625        0.851852        0.0921325        0        
C2        C        0.71875        0.851852        0.0921325        0        
C2        C        0.78125        0.851852        0.0921325        0        
C2        C        0.84375        0.851852        0.0921325        0        
C2        C        0.9062500000000001        0.851852        0.0921325        0        
C2        C        0.9687500000000001        0.851852        0.0921325        0        
C_FG        C        0.0        0.87037        0.0921325        0.08        
C3        C        0.0625        0.87037        0.0921325        0        
C3        C        0.125        0.87037        0.0921325        0        
C3        C        0.1875        0.87037        0.0921325        0        
C_FG        C        0.25        0.87037        0.0921325        0.08        
C3        C        0.3125        0.87037        0.0921325        0        
C3        C        0.375        0.87037        0.0921325        0        
C3        C        0.4375        0.87037        0.0921325        0        
C3        C        0.5        0.87037        0.0921325        0        
C3        C        0.5625        0.87037        0.0921325        0        
C3        C        0.625        0.87037        0.0921325        0        
C3        C        0.6875        0.87037        0.0921325        0        
C_FG        C        0.75        0.87037        0.0921325        0.08        
C3        C        0.8125        0.87037        0.0921325        0        
C3        C        0.875        0.87037        0.0921325        0        
C3        C        0.9375        0.87037        0.0921325        0        
C4        C        0.03125        0.814814        0.0921325        0        
C4        C        0.09375        0.814814        0.0921325        0        
C4        C        0.15625        0.814814        0.0921325        0        
C4        C        0.21875        0.814814        0.0921325        0        
C4        C        0.28125        0.814814        0.0921325        0        
C4        C        0.34375        0.814814        0.0921325        0        
C4        C        0.40625        0.814814        0.0921325        0        
C4        C        0.46875        0.814814        0.0921325        0        
C4        C        0.53125        0.814814        0.0921325        0        
C4        C        0.59375        0.814814        0.0921325        0        
C4        C        0.65625        0.814814        0.0921325        0        
C4        C        0.71875        0.814814        0.0921325        0        
C4        C        0.78125        0.814814        0.0921325        0        
C4        C        0.84375        0.814814        0.0921325        0        
C4        C        0.9062500000000001        0.814814        0.0921325        0        
C4        C        0.9687500000000001        0.814814        0.0921325        0        
C1        C        0.0        0.907408        0.0921325        0        
C1        C        0.0625        0.907408        0.0921325        0        
C1        C        0.125        0.907408        0.0921325        0        
C1        C        0.1875        0.907408        0.0921325        0        
C1        C        0.25        0.907408        0.0921325        0        
C1        C        0.3125        0.907408        0.0921325        0        
C1        C        0.375        0.907408        0.0921325        0        
C1        C        0.4375        0.907408        0.0921325        0        
C1        C        0.5        0.907408        0.0921325        0        
C1        C        0.5625        0.907408        0.0921325        0        
C1        C        0.625        0.907408        0.0921325        0        
C1        C        0.6875        0.907408        0.0921325        0        
C1        C        0.75        0.907408        0.0921325        0        
C1        C        0.8125        0.907408        0.0921325        0        
C1        C        0.875        0.907408        0.0921325        0        
C1        C        0.9375        0.907408        0.0921325        0        
C2        C        0.03125        0.962963        0.0921325        0        
C2        C        0.09375        0.962963        0.0921325        0        
C2        C        0.15625        0.962963        0.0921325        0        
C2        C        0.21875        0.962963        0.0921325        0        
C2        C        0.28125        0.962963        0.0921325        0        
C2        C        0.34375        0.962963        0.0921325        0        
C2        C        0.40625        0.962963        0.0921325        0        
C2        C        0.46875        0.962963        0.0921325        0        
C2        C        0.53125        0.962963        0.0921325        0        
C2        C        0.59375        0.962963        0.0921325        0        
C2        C        0.65625        0.962963        0.0921325        0        
C2        C        0.71875        0.962963        0.0921325        0        
C2        C        0.78125        0.962963        0.0921325        0        
C2        C        0.84375        0.962963        0.0921325        0        
C2        C        0.9062500000000001        0.962963        0.0921325        0        
C2        C        0.9687500000000001        0.962963        0.0921325        0        
C3        C        0.0        0.9814809999999999        0.0921325        0        
C3        C        0.0625        0.9814809999999999        0.0921325        0        
C3        C        0.125        0.9814809999999999        0.0921325        0        
C3        C        0.1875        0.9814809999999999        0.0921325        0        
C3        C        0.25        0.9814809999999999        0.0921325        0        
C3        C        0.3125        0.9814809999999999        0.0921325        0        
C3        C        0.375        0.9814809999999999        0.0921325        0        
C3        C        0.4375        0.9814809999999999        0.0921325        0        
C3        C        0.5        0.9814809999999999        0.0921325        0        
C3        C        0.5625        0.9814809999999999        0.0921325        0        
C3        C        0.625        0.9814809999999999        0.0921325        0        
C3        C        0.6875        0.9814809999999999        0.0921325        0        
C3        C        0.75        0.9814809999999999        0.0921325        0        
C3        C        0.8125        0.9814809999999999        0.0921325        0        
C3        C        0.875        0.9814809999999999        0.0921325        0        
C3        C        0.9375        0.9814809999999999        0.0921325        0        
C4        C        0.03125        0.925925        0.0921325        0        
C4        C        0.09375        0.925925        0.0921325        0        
C4        C        0.15625        0.925925        0.0921325        0        
C4        C        0.21875        0.925925        0.0921325        0        
C4        C        0.28125        0.925925        0.0921325        0        
C4        C        0.34375        0.925925        0.0921325        0        
C4        C        0.40625        0.925925        0.0921325        0        
C4        C        0.46875        0.925925        0.0921325        0        
C4        C        0.53125        0.925925        0.0921325        0        
C4        C        0.59375        0.925925        0.0921325        0        
C4        C        0.65625        0.925925        0.0921325        0        
C4        C        0.71875        0.925925        0.0921325        0        
C4        C        0.78125        0.925925        0.0921325        0        
C4        C        0.84375        0.925925        0.0921325        0        
C4        C        0.9062500000000001        0.925925        0.0921325        0        
C4        C        0.9687500000000001        0.925925        0.0921325        0        
C1        C        0.0        0.018519        0.2250695        0        
C2        C        0.03125        0.074075        0.2250695        0        
C3        C        0.0        0.092592        0.2250695        0        
C4        C        0.03125        0.037037        0.2250695        0        
C1        C        0.0        0.12963        0.2250695        0        
C2        C        0.03125        0.185185        0.2250695        0        
C3        C        0.0        0.203703        0.2250695        0        
C4        C        0.03125        0.148148        0.2250695        0        
C1        C        0.0        0.24074099999999998        0.2250695        0        
C2        C        0.03125        0.296297        0.2250695        0        
C3        C        0.0        0.314815        0.2250695        0        
C4        C        0.03125        0.259259        0.2250695        0        
C1        C        0.0        0.351852        0.2250695        0        
C2        C        0.03125        0.407408        0.2250695        0        
C3        C        0.0        0.42592500000000005        0.2250695        0        
C4        C        0.03125        0.37037        0.2250695        0        
C1        C        0.0        0.46296300000000007        0.2250695        0        
C2        C        0.03125        0.518519        0.2250695        0        
C3        C        0.0        0.537037        0.2250695        0        
C4        C        0.03125        0.481481        0.2250695        0        
C1        C        0.0        0.574075        0.2250695        0        
C2        C        0.03125        0.62963        0.2250695        0        
C3        C        0.0        0.648148        0.2250695        0        
C4        C        0.03125        0.592592        0.2250695        0        
C1        C        0.0625        0.018519        0.2250695        0        
C2        C        0.09375        0.074075        0.2250695        0        
C3        C        0.0625        0.092592        0.2250695        0        
C4        C        0.09375        0.037037        0.2250695        0        
C1        C        0.0625        0.12963        0.2250695        0        
C2        C        0.09375        0.185185        0.2250695        0        
C3        C        0.0625        0.203703        0.2250695        0        
C4        C        0.09375        0.148148        0.2250695        0        
C1        C        0.0625        0.24074099999999998        0.2250695        0        
C2        C        0.09375        0.296297        0.2250695        0        
C3        C        0.0625        0.314815        0.2250695        0        
C4        C        0.09375        0.259259        0.2250695        0        
C1        C        0.0625        0.351852        0.2250695        0        
C2        C        0.09375        0.407408        0.2250695        0        
C3        C        0.0625        0.42592500000000005        0.2250695        0        
C4        C        0.09375        0.37037        0.2250695        0        
C1        C        0.0625        0.46296300000000007        0.2250695        0        
C2        C        0.09375        0.518519        0.2250695        0        
C3        C        0.0625        0.537037        0.2250695        0        
C4        C        0.09375        0.481481        0.2250695        0        
C1        C        0.0625        0.574075        0.2250695        0        
C2        C        0.09375        0.62963        0.2250695        0        
C3        C        0.0625        0.648148        0.2250695        0        
C4        C        0.09375        0.592592        0.2250695        0        
C1        C        0.125        0.018519        0.2250695        0        
C2        C        0.15625        0.074075        0.2250695        0        
C3        C        0.125        0.092592        0.2250695        0        
C4        C        0.15625        0.037037        0.2250695        0        
C1        C        0.125        0.12963        0.2250695        0        
C2        C        0.15625        0.185185        0.2250695        0        
C3        C        0.125        0.203703        0.2250695        0        
C4        C        0.15625        0.148148        0.2250695        0        
C1        C        0.125        0.24074099999999998        0.2250695        0        
C2        C        0.15625        0.296297        0.2250695        0        
C3        C        0.125        0.314815        0.2250695        0        
C4        C        0.15625        0.259259        0.2250695        0        
C1        C        0.125        0.351852        0.2250695        0        
C2        C        0.15625        0.407408        0.2250695        0        
C3        C        0.125        0.42592500000000005        0.2250695        0        
C4        C        0.15625        0.37037        0.2250695        0        
C1        C        0.125        0.46296300000000007        0.2250695        0        
C2        C        0.15625        0.518519        0.2250695        0        
C3        C        0.125        0.537037        0.2250695        0        
C4        C        0.15625        0.481481        0.2250695        0        
C1        C        0.125        0.574075        0.2250695        0        
C2        C        0.15625        0.62963        0.2250695        0        
C3        C        0.125        0.648148        0.2250695        0        
C4        C        0.15625        0.592592        0.2250695        0        
C1        C        0.1875        0.018519        0.2250695        0        
C2        C        0.21875        0.074075        0.2250695        0        
C3        C        0.1875        0.092592        0.2250695        0        
C4        C        0.21875        0.037037        0.2250695        0        
C1        C        0.1875        0.12963        0.2250695        0        
C2        C        0.21875        0.185185        0.2250695        0        
C3        C        0.1875        0.203703        0.2250695        0        
C4        C        0.21875        0.148148        0.2250695        0        
C1        C        0.1875        0.24074099999999998        0.2250695        0        
C2        C        0.21875        0.296297        0.2250695        0        
C3        C        0.1875        0.314815        0.2250695        0        
C4        C        0.21875        0.259259        0.2250695        0        
C1        C        0.1875        0.351852        0.2250695        0        
C2        C        0.21875        0.407408        0.2250695        0        
C3        C        0.1875        0.42592500000000005        0.2250695        0        
C4        C        0.21875        0.37037        0.2250695        0        
C1        C        0.1875        0.46296300000000007        0.2250695        0        
C2        C        0.21875        0.518519        0.2250695        0        
C3        C        0.1875        0.537037        0.2250695        0        
C4        C        0.21875        0.481481        0.2250695        0        
C1        C        0.1875        0.574075        0.2250695        0        
C2        C        0.21875        0.62963        0.2250695        0        
C3        C        0.1875        0.648148        0.2250695        0        
C4        C        0.21875        0.592592        0.2250695        0        
C1        C        0.25        0.018519        0.2250695        0        
C2        C        0.28125        0.074075        0.2250695        0        
C3        C        0.25        0.092592        0.2250695        0        
C4        C        0.28125        0.037037        0.2250695        0        
C1        C        0.25        0.12963        0.2250695        0        
C2        C        0.28125        0.185185        0.2250695        0        
C3        C        0.25        0.203703        0.2250695        0        
C4        C        0.28125        0.148148        0.2250695        0        
C1        C        0.25        0.24074099999999998        0.2250695        0        
C2        C        0.28125        0.296297        0.2250695        0        
C3        C        0.25        0.314815        0.2250695        0        
C4        C        0.28125        0.259259        0.2250695        0        
C1        C        0.25        0.351852        0.2250695        0        
C2        C        0.28125        0.407408        0.2250695        0        
C3        C        0.25        0.42592500000000005        0.2250695        0        
C4        C        0.28125        0.37037        0.2250695        0        
C1        C        0.25        0.46296300000000007        0.2250695        0        
C2        C        0.28125        0.518519        0.2250695        0        
C3        C        0.25        0.537037        0.2250695        0        
C4        C        0.28125        0.481481        0.2250695        0        
C1        C        0.25        0.574075        0.2250695        0        
C2        C        0.28125        0.62963        0.2250695        0        
C3        C        0.25        0.648148        0.2250695        0        
C4        C        0.28125        0.592592        0.2250695        0        
C1        C        0.3125        0.018519        0.2250695        0        
C2        C        0.34375        0.074075        0.2250695        0        
C3        C        0.3125        0.092592        0.2250695        0        
C4        C        0.34375        0.037037        0.2250695        0        
C1        C        0.3125        0.12963        0.2250695        0        
C2        C        0.34375        0.185185        0.2250695        0        
C3        C        0.3125        0.203703        0.2250695        0        
C4        C        0.34375        0.148148        0.2250695        0        
C1        C        0.3125        0.24074099999999998        0.2250695        0        
C2        C        0.34375        0.296297        0.2250695        0        
C3        C        0.3125        0.314815        0.2250695        0        
C4        C        0.34375        0.259259        0.2250695        0        
C1        C        0.3125        0.351852        0.2250695        0        
C2        C        0.34375        0.407408        0.2250695        0        
C3        C        0.3125        0.42592500000000005        0.2250695        0        
C4        C        0.34375        0.37037        0.2250695        0        
C1        C        0.3125        0.46296300000000007        0.2250695        0        
C2        C        0.34375        0.518519        0.2250695        0        
C3        C        0.3125        0.537037        0.2250695        0        
C4        C        0.34375        0.481481        0.2250695        0        
C1        C        0.3125        0.574075        0.2250695        0        
C2        C        0.34375        0.62963        0.2250695        0        
C3        C        0.3125        0.648148        0.2250695        0        
C4        C        0.34375        0.592592        0.2250695        0        
C1        C        0.375        0.018519        0.2250695        0        
C2        C        0.40625        0.074075        0.2250695        0        
C3        C        0.375        0.092592        0.2250695        0        
C4        C        0.40625        0.037037        0.2250695        0        
C1        C        0.375        0.12963        0.2250695        0        
C2        C        0.40625        0.185185        0.2250695        0        
C3        C        0.375        0.203703        0.2250695        0        
C4        C        0.40625        0.148148        0.2250695        0        
C1        C        0.375        0.24074099999999998        0.2250695        0        
C2        C        0.40625        0.296297        0.2250695        0        
C3        C        0.375        0.314815        0.2250695        0        
C4        C        0.40625        0.259259        0.2250695        0        
C1        C        0.375        0.351852        0.2250695        0        
C2        C        0.40625        0.407408        0.2250695        0        
C3        C        0.375        0.42592500000000005        0.2250695        0        
C4        C        0.40625        0.37037        0.2250695        0        
C1        C        0.375        0.46296300000000007        0.2250695        0        
C2        C        0.40625        0.518519        0.2250695        0        
C3        C        0.375        0.537037        0.2250695        0        
C4        C        0.40625        0.481481        0.2250695        0        
C1        C        0.375        0.574075        0.2250695        0        
C2        C        0.40625        0.62963        0.2250695        0        
C3        C        0.375        0.648148        0.2250695        0        
C4        C        0.40625        0.592592        0.2250695        0        
C1        C        0.4375        0.018519        0.2250695        0        
C2        C        0.46875        0.074075        0.2250695        0        
C3        C        0.4375        0.092592        0.2250695        0        
C4        C        0.46875        0.037037        0.2250695        0        
C1        C        0.4375        0.12963        0.2250695        0        
C2        C        0.46875        0.185185        0.2250695        0        
C3        C        0.4375        0.203703        0.2250695        0        
C4        C        0.46875        0.148148        0.2250695        0        
C1        C        0.4375        0.24074099999999998        0.2250695        0        
C2        C        0.46875        0.296297        0.2250695        0        
C3        C        0.4375        0.314815        0.2250695        0        
C4        C        0.46875        0.259259        0.2250695        0        
C1        C        0.4375        0.351852        0.2250695        0        
C2        C        0.46875        0.407408        0.2250695        0        
C3        C        0.4375        0.42592500000000005        0.2250695        0        
C4        C        0.46875        0.37037        0.2250695        0        
C1        C        0.4375        0.46296300000000007        0.2250695        0        
C2        C        0.46875        0.518519        0.2250695        0        
C3        C        0.4375        0.537037        0.2250695        0        
C4        C        0.46875        0.481481        0.2250695        0        
C1        C        0.4375        0.574075        0.2250695        0        
C2        C        0.46875        0.62963        0.2250695        0        
C3        C        0.4375        0.648148        0.2250695        0        
C4        C        0.46875        0.592592        0.2250695        0        
C1        C        0.5        0.018519        0.2250695        0        
C2        C        0.53125        0.074075        0.2250695        0        
C3        C        0.5        0.092592        0.2250695        0        
C4        C        0.53125        0.037037        0.2250695        0        
C1        C        0.5        0.12963        0.2250695        0        
C2        C        0.53125        0.185185        0.2250695        0        
C3        C        0.5        0.203703        0.2250695        0        
C4        C        0.53125        0.148148        0.2250695        0        
C1        C        0.5        0.24074099999999998        0.2250695        0        
C2        C        0.53125        0.296297        0.2250695        0        
C3        C        0.5        0.314815        0.2250695        0        
C4        C        0.53125        0.259259        0.2250695        0        
C1        C        0.5        0.351852        0.2250695        0        
C2        C        0.53125        0.407408        0.2250695        0        
C3        C        0.5        0.42592500000000005        0.2250695        0        
C4        C        0.53125        0.37037        0.2250695        0        
C1        C        0.5        0.46296300000000007        0.2250695        0        
C2        C        0.53125        0.518519        0.2250695        0        
C3        C        0.5        0.537037        0.2250695        0        
C4        C        0.53125        0.481481        0.2250695        0        
C1        C        0.5        0.574075        0.2250695        0        
C2        C        0.53125        0.62963        0.2250695        0        
C3        C        0.5        0.648148        0.2250695        0        
C4        C        0.53125        0.592592        0.2250695        0        
C1        C        0.5625        0.018519        0.2250695        0        
C2        C        0.59375        0.074075        0.2250695        0        
C3        C        0.5625        0.092592        0.2250695        0        
C4        C        0.59375        0.037037        0.2250695        0        
C1        C        0.5625        0.12963        0.2250695        0        
C2        C        0.59375        0.185185        0.2250695        0        
C3        C        0.5625        0.203703        0.2250695        0        
C4        C        0.59375        0.148148        0.2250695        0        
C1        C        0.5625        0.24074099999999998        0.2250695        0        
C2        C        0.59375        0.296297        0.2250695        0        
C3        C        0.5625        0.314815        0.2250695        0        
C4        C        0.59375        0.259259        0.2250695        0        
C1        C        0.5625        0.351852        0.2250695        0        
C2        C        0.59375        0.407408        0.2250695        0        
C3        C        0.5625        0.42592500000000005        0.2250695        0        
C4        C        0.59375        0.37037        0.2250695        0        
C1        C        0.5625        0.46296300000000007        0.2250695        0        
C2        C        0.59375        0.518519        0.2250695        0        
C3        C        0.5625        0.537037        0.2250695        0        
C4        C        0.59375        0.481481        0.2250695        0        
C1        C        0.5625        0.574075        0.2250695        0        
C2        C        0.59375        0.62963        0.2250695        0        
C3        C        0.5625        0.648148        0.2250695        0        
C4        C        0.59375        0.592592        0.2250695        0        
C1        C        0.625        0.018519        0.2250695        0        
C2        C        0.65625        0.074075        0.2250695        0        
C3        C        0.625        0.092592        0.2250695        0        
C4        C        0.65625        0.037037        0.2250695        0        
C1        C        0.625        0.12963        0.2250695        0        
C2        C        0.65625        0.185185        0.2250695        0        
C3        C        0.625        0.203703        0.2250695        0        
C4        C        0.65625        0.148148        0.2250695        0        
C1        C        0.625        0.24074099999999998        0.2250695        0        
C2        C        0.65625        0.296297        0.2250695        0        
C3        C        0.625        0.314815        0.2250695        0        
C4        C        0.65625        0.259259        0.2250695        0        
C1        C        0.625        0.351852        0.2250695        0        
C2        C        0.65625        0.407408        0.2250695        0        
C3        C        0.625        0.42592500000000005        0.2250695        0        
C4        C        0.65625        0.37037        0.2250695        0        
C1        C        0.625        0.46296300000000007        0.2250695        0        
C2        C        0.65625        0.518519        0.2250695        0        
C3        C        0.625        0.537037        0.2250695        0        
C4        C        0.65625        0.481481        0.2250695        0        
C1        C        0.625        0.574075        0.2250695        0        
C2        C        0.65625        0.62963        0.2250695        0        
C3        C        0.625        0.648148        0.2250695        0        
C4        C        0.65625        0.592592        0.2250695        0        
C1        C        0.6875        0.018519        0.2250695        0        
C2        C        0.71875        0.074075        0.2250695        0        
C3        C        0.6875        0.092592        0.2250695        0        
C4        C        0.71875        0.037037        0.2250695        0        
C1        C        0.6875        0.12963        0.2250695        0        
C2        C        0.71875        0.185185        0.2250695        0        
C3        C        0.6875        0.203703        0.2250695        0        
C4        C        0.71875        0.148148        0.2250695        0        
C1        C        0.6875        0.24074099999999998        0.2250695        0        
C2        C        0.71875        0.296297        0.2250695        0        
C3        C        0.6875        0.314815        0.2250695        0        
C4        C        0.71875        0.259259        0.2250695        0        
C1        C        0.6875        0.351852        0.2250695        0        
C2        C        0.71875        0.407408        0.2250695        0        
C3        C        0.6875        0.42592500000000005        0.2250695        0        
C4        C        0.71875        0.37037        0.2250695        0        
C1        C        0.6875        0.46296300000000007        0.2250695        0        
C2        C        0.71875        0.518519        0.2250695        0        
C3        C        0.6875        0.537037        0.2250695        0        
C4        C        0.71875        0.481481        0.2250695        0        
C1        C        0.6875        0.574075        0.2250695        0        
C2        C        0.71875        0.62963        0.2250695        0        
C3        C        0.6875        0.648148        0.2250695        0        
C4        C        0.71875        0.592592        0.2250695        0        
C1        C        0.75        0.018519        0.2250695        0        
C2        C        0.78125        0.074075        0.2250695        0        
C3        C        0.75        0.092592        0.2250695        0        
C4        C        0.78125        0.037037        0.2250695        0        
C1        C        0.75        0.12963        0.2250695        0        
C2        C        0.78125        0.185185        0.2250695        0        
C3        C        0.75        0.203703        0.2250695        0        
C4        C        0.78125        0.148148        0.2250695        0        
C1        C        0.75        0.24074099999999998        0.2250695        0        
C2        C        0.78125        0.296297        0.2250695        0        
C3        C        0.75        0.314815        0.2250695        0        
C4        C        0.78125        0.259259        0.2250695        0        
C1        C        0.75        0.351852        0.2250695        0        
C2        C        0.78125        0.407408        0.2250695        0        
C3        C        0.75        0.42592500000000005        0.2250695        0        
C4        C        0.78125        0.37037        0.2250695        0        
C1        C        0.75        0.46296300000000007        0.2250695        0        
C2        C        0.78125        0.518519        0.2250695        0        
C3        C        0.75        0.537037        0.2250695        0        
C4        C        0.78125        0.481481        0.2250695        0        
C1        C        0.75        0.574075        0.2250695        0        
C2        C        0.78125        0.62963        0.2250695        0        
C3        C        0.75        0.648148        0.2250695        0        
C4        C        0.78125        0.592592        0.2250695        0        
C1        C        0.8125        0.018519        0.2250695        0        
C2        C        0.84375        0.074075        0.2250695        0        
C3        C        0.8125        0.092592        0.2250695        0        
C4        C        0.84375        0.037037        0.2250695        0        
C1        C        0.8125        0.12963        0.2250695        0        
C2        C        0.84375        0.185185        0.2250695        0        
C3        C        0.8125        0.203703        0.2250695        0        
C4        C        0.84375        0.148148        0.2250695        0        
C1        C        0.8125        0.24074099999999998        0.2250695        0        
C2        C        0.84375        0.296297        0.2250695        0        
C3        C        0.8125        0.314815        0.2250695        0        
C4        C        0.84375        0.259259        0.2250695        0        
C1        C        0.8125        0.351852        0.2250695        0        
C2        C        0.84375        0.407408        0.2250695        0        
C3        C        0.8125        0.42592500000000005        0.2250695        0        
C4        C        0.84375        0.37037        0.2250695        0        
C1        C        0.8125        0.46296300000000007        0.2250695        0        
C2        C        0.84375        0.518519        0.2250695        0        
C3        C        0.8125        0.537037        0.2250695        0        
C4        C        0.84375        0.481481        0.2250695        0        
C1        C        0.8125        0.574075        0.2250695        0        
C2        C        0.84375        0.62963        0.2250695        0        
C3        C        0.8125        0.648148        0.2250695        0        
C4        C        0.84375        0.592592        0.2250695        0        
C1        C        0.875        0.018519        0.2250695        0        
C2        C        0.9062500000000001        0.074075        0.2250695        0        
C3        C        0.875        0.092592        0.2250695        0        
C4        C        0.9062500000000001        0.037037        0.2250695        0        
C1        C        0.875        0.12963        0.2250695        0        
C2        C        0.9062500000000001        0.185185        0.2250695        0        
C3        C        0.875        0.203703        0.2250695        0        
C4        C        0.9062500000000001        0.148148        0.2250695        0        
C1        C        0.875        0.24074099999999998        0.2250695        0        
C2        C        0.9062500000000001        0.296297        0.2250695        0        
C3        C        0.875        0.314815        0.2250695        0        
C4        C        0.9062500000000001        0.259259        0.2250695        0        
C1        C        0.875        0.351852        0.2250695        0        
C2        C        0.9062500000000001        0.407408        0.2250695        0        
C3        C        0.875        0.42592500000000005        0.2250695        0        
C4        C        0.9062500000000001        0.37037        0.2250695        0        
C1        C        0.875        0.46296300000000007        0.2250695        0        
C2        C        0.9062500000000001        0.518519        0.2250695        0        
C3        C        0.875        0.537037        0.2250695        0        
C4        C        0.9062500000000001        0.481481        0.2250695        0        
C1        C        0.875        0.574075        0.2250695        0        
C2        C        0.9062500000000001        0.62963        0.2250695        0        
C3        C        0.875        0.648148        0.2250695        0        
C4        C        0.9062500000000001        0.592592        0.2250695        0        
C1        C        0.9375        0.018519        0.2250695        0        
C2        C        0.9687500000000001        0.074075        0.2250695        0        
C3        C        0.9375        0.092592        0.2250695        0        
C4        C        0.9687500000000001        0.037037        0.2250695        0        
C1        C        0.9375        0.12963        0.2250695        0        
C2        C        0.9687500000000001        0.185185        0.2250695        0        
C3        C        0.9375        0.203703        0.2250695        0        
C4        C        0.9687500000000001        0.148148        0.2250695        0        
C1        C        0.9375        0.24074099999999998        0.2250695        0        
C2        C        0.9687500000000001        0.296297        0.2250695        0        
C3        C        0.9375        0.314815        0.2250695        0        
C4        C        0.9687500000000001        0.259259        0.2250695        0        
C1        C        0.9375        0.351852        0.2250695        0        
C2        C        0.9687500000000001        0.407408        0.2250695        0        
C3        C        0.9375        0.42592500000000005        0.2250695        0        
C4        C        0.9687500000000001        0.37037        0.2250695        0        
C1        C        0.9375        0.46296300000000007        0.2250695        0        
C2        C        0.9687500000000001        0.518519        0.2250695        0        
C3        C        0.9375        0.537037        0.2250695        0        
C4        C        0.9687500000000001        0.481481        0.2250695        0        
C1        C        0.9375        0.574075        0.2250695        0        
C2        C        0.9687500000000001        0.62963        0.2250695        0        
C3        C        0.9375        0.648148        0.2250695        0        
C4        C        0.9687500000000001        0.592592        0.2250695        0        
C1        C        0.0        0.685186        0.2250695        0        
C1        C        0.0625        0.685186        0.2250695        0        
C1        C        0.125        0.685186        0.2250695        0        
C1        C        0.1875        0.685186        0.2250695        0        
C1        C        0.25        0.685186        0.2250695        0        
C1        C        0.3125        0.685186        0.2250695        0        
C1        C        0.375        0.685186        0.2250695        0        
C1        C        0.4375        0.685186        0.2250695        0        
C1        C        0.5        0.685186        0.2250695        0        
C1        C        0.5625        0.685186        0.2250695        0        
C1        C        0.625        0.685186        0.2250695        0        
C1        C        0.6875        0.685186        0.2250695        0        
C1        C        0.75        0.685186        0.2250695        0        
C1        C        0.8125        0.685186        0.2250695        0        
C1        C        0.875        0.685186        0.2250695        0        
C1        C        0.9375        0.685186        0.2250695        0        
C2        C        0.03125        0.740741        0.2250695        0        
C2        C        0.09375        0.740741        0.2250695        0        
C2        C        0.15625        0.740741        0.2250695        0        
C2        C        0.21875        0.740741        0.2250695        0        
C2        C        0.28125        0.740741        0.2250695        0        
C2        C        0.34375        0.740741        0.2250695        0        
C2        C        0.40625        0.740741        0.2250695        0        
C2        C        0.46875        0.740741        0.2250695        0        
C2        C        0.53125        0.740741        0.2250695        0        
C2        C        0.59375        0.740741        0.2250695        0        
C2        C        0.65625        0.740741        0.2250695        0        
C2        C        0.71875        0.740741        0.2250695        0        
C2        C        0.78125        0.740741        0.2250695        0        
C2        C        0.84375        0.740741        0.2250695        0        
C2        C        0.9062500000000001        0.740741        0.2250695        0        
C2        C        0.9687500000000001        0.740741        0.2250695        0        
C3        C        0.0        0.759259        0.2250695        0        
C3        C        0.0625        0.759259        0.2250695        0        
C3        C        0.125        0.759259        0.2250695        0        
C3        C        0.1875        0.759259        0.2250695        0        
C3        C        0.25        0.759259        0.2250695        0        
C3        C        0.3125        0.759259        0.2250695        0        
C3        C        0.375        0.759259        0.2250695        0        
C3        C        0.4375        0.759259        0.2250695        0        
C3        C        0.5        0.759259        0.2250695        0        
C3        C        0.5625        0.759259        0.2250695        0        
C3        C        0.625        0.759259        0.2250695        0        
C3        C        0.6875        0.759259        0.2250695        0        
C3        C        0.75        0.759259        0.2250695        0        
C3        C        0.8125        0.759259        0.2250695        0        
C3        C        0.875        0.759259        0.2250695        0        
C3        C        0.9375        0.759259        0.2250695        0        
C4        C        0.03125        0.703703        0.2250695        0        
C4        C        0.09375        0.703703        0.2250695        0        
C4        C        0.15625        0.703703        0.2250695        0        
C4        C        0.21875        0.703703        0.2250695        0        
C4        C        0.28125        0.703703        0.2250695        0        
C4        C        0.34375        0.703703        0.2250695        0        
C4        C        0.40625        0.703703        0.2250695        0        
C4        C        0.46875        0.703703        0.2250695        0        
C4        C        0.53125        0.703703        0.2250695        0        
C4        C        0.59375        0.703703        0.2250695        0        
C4        C        0.65625        0.703703        0.2250695        0        
C4        C        0.71875        0.703703        0.2250695        0        
C4        C        0.78125        0.703703        0.2250695        0        
C4        C        0.84375        0.703703        0.2250695        0        
C4        C        0.9062500000000001        0.703703        0.2250695        0        
C4        C        0.9687500000000001        0.703703        0.2250695        0        
C1        C        0.0        0.796297        0.2250695        0        
C1        C        0.0625        0.796297        0.2250695        0        
C1        C        0.125        0.796297        0.2250695        0        
C1        C        0.1875        0.796297        0.2250695        0        
C1        C        0.25        0.796297        0.2250695        0        
C1        C        0.3125        0.796297        0.2250695        0        
C1        C        0.375        0.796297        0.2250695        0        
C1        C        0.4375        0.796297        0.2250695        0        
C1        C        0.5        0.796297        0.2250695        0        
C1        C        0.5625        0.796297        0.2250695        0        
C1        C        0.625        0.796297        0.2250695        0        
C1        C        0.6875        0.796297        0.2250695        0        
C1        C        0.75        0.796297        0.2250695        0        
C1        C        0.8125        0.796297        0.2250695        0        
C1        C        0.875        0.796297        0.2250695        0        
C1        C        0.9375        0.796297        0.2250695        0        
C2        C        0.03125        0.851852        0.2250695        0        
C2        C        0.09375        0.851852        0.2250695        0        
C2        C        0.15625        0.851852        0.2250695        0        
C2        C        0.21875        0.851852        0.2250695        0        
C2        C        0.28125        0.851852        0.2250695        0        
C2        C        0.34375        0.851852        0.2250695        0        
C2        C        0.40625        0.851852        0.2250695        0        
C2        C        0.46875        0.851852        0.2250695        0        
C2        C        0.53125        0.851852        0.2250695        0        
C2        C        0.59375        0.851852        0.2250695        0        
C2        C        0.65625        0.851852        0.2250695        0        
C2        C        0.71875        0.851852        0.2250695        0        
C2        C        0.78125        0.851852        0.2250695        0        
C2        C        0.84375        0.851852        0.2250695        0        
C2        C        0.9062500000000001        0.851852        0.2250695        0        
C2        C        0.9687500000000001        0.851852        0.2250695        0        
C3        C        0.0        0.87037        0.2250695        0        
C3        C        0.0625        0.87037        0.2250695        0        
C3        C        0.125        0.87037        0.2250695        0        
C3        C        0.1875        0.87037        0.2250695        0        
C3        C        0.25        0.87037        0.2250695        0        
C3        C        0.3125        0.87037        0.2250695        0        
C3        C        0.375        0.87037        0.2250695        0        
C3        C        0.4375        0.87037        0.2250695        0        
C3        C        0.5        0.87037        0.2250695        0        
C3        C        0.5625        0.87037        0.2250695        0        
C3        C        0.625        0.87037        0.2250695        0        
C3        C        0.6875        0.87037        0.2250695        0        
C3        C        0.75        0.87037        0.2250695        0        
C3        C        0.8125        0.87037        0.2250695        0        
C3        C        0.875        0.87037        0.2250695        0        
C3        C        0.9375        0.87037        0.2250695        0        
C4        C        0.03125        0.814814        0.2250695        0        
C4        C        0.09375        0.814814        0.2250695        0        
C4        C        0.15625        0.814814        0.2250695        0        
C4        C        0.21875        0.814814        0.2250695        0        
C4        C        0.28125        0.814814        0.2250695        0        
C4        C        0.34375        0.814814        0.2250695        0        
C4        C        0.40625        0.814814        0.2250695        0        
C4        C        0.46875        0.814814        0.2250695        0        
C4        C        0.53125        0.814814        0.2250695        0        
C4        C        0.59375        0.814814        0.2250695        0        
C4        C        0.65625        0.814814        0.2250695        0        
C4        C        0.71875        0.814814        0.2250695        0        
C4        C        0.78125        0.814814        0.2250695        0        
C4        C        0.84375        0.814814        0.2250695        0        
C4        C        0.9062500000000001        0.814814        0.2250695        0        
C4        C        0.9687500000000001        0.814814        0.2250695        0        
C1        C        0.0        0.907408        0.2250695        0        
C1        C        0.0625        0.907408        0.2250695        0        
C1        C        0.125        0.907408        0.2250695        0        
C1        C        0.1875        0.907408        0.2250695        0        
C1        C        0.25        0.907408        0.2250695        0        
C1        C        0.3125        0.907408        0.2250695        0        
C1        C        0.375        0.907408        0.2250695        0        
C1        C        0.4375        0.907408        0.2250695        0        
C1        C        0.5        0.907408        0.2250695        0        
C1        C        0.5625        0.907408        0.2250695        0        
C1        C        0.625        0.907408        0.2250695        0        
C1        C        0.6875        0.907408        0.2250695        0        
C1        C        0.75        0.907408        0.2250695        0        
C1        C        0.8125        0.907408        0.2250695        0        
C1        C        0.875        0.907408        0.2250695        0        
C1        C        0.9375        0.907408        0.2250695        0        
C2        C        0.03125        0.962963        0.2250695        0        
C2        C        0.09375        0.962963        0.2250695        0        
C2        C        0.15625        0.962963        0.2250695        0        
C2        C        0.21875        0.962963        0.2250695        0        
C2        C        0.28125        0.962963        0.2250695        0        
C2        C        0.34375        0.962963        0.2250695        0        
C2        C        0.40625        0.962963        0.2250695        0        
C2        C        0.46875        0.962963        0.2250695        0        
C2        C        0.53125        0.962963        0.2250695        0        
C2        C        0.59375        0.962963        0.2250695        0        
C2        C        0.65625        0.962963        0.2250695        0        
C2        C        0.71875        0.962963        0.2250695        0        
C2        C        0.78125        0.962963        0.2250695        0        
C2        C        0.84375        0.962963        0.2250695        0        
C2        C        0.9062500000000001        0.962963        0.2250695        0        
C2        C        0.9687500000000001        0.962963        0.2250695        0        
C3        C        0.0        0.9814809999999999        0.2250695        0        
C3        C        0.0625        0.9814809999999999        0.2250695        0        
C3        C        0.125        0.9814809999999999        0.2250695        0        
C3        C        0.1875        0.9814809999999999        0.2250695        0        
C3        C        0.25        0.9814809999999999        0.2250695        0        
C3        C        0.3125        0.9814809999999999        0.2250695        0        
C3        C        0.375        0.9814809999999999        0.2250695        0        
C3        C        0.4375        0.9814809999999999        0.2250695        0        
C3        C        0.5        0.9814809999999999        0.2250695        0        
C3        C        0.5625        0.9814809999999999        0.2250695        0        
C3        C        0.625        0.9814809999999999        0.2250695        0        
C3        C        0.6875        0.9814809999999999        0.2250695        0        
C3        C        0.75        0.9814809999999999        0.2250695        0        
C3        C        0.8125        0.9814809999999999        0.2250695        0        
C3        C        0.875        0.9814809999999999        0.2250695        0        
C3        C        0.9375        0.9814809999999999        0.2250695        0        
C4        C        0.03125        0.925925        0.2250695        0        
C4        C        0.09375        0.925925        0.2250695        0        
C4        C        0.15625        0.925925        0.2250695        0        
C4        C        0.21875        0.925925        0.2250695        0        
C4        C        0.28125        0.925925        0.2250695        0        
C4        C        0.34375        0.925925        0.2250695        0        
C4        C        0.40625        0.925925        0.2250695        0        
C4        C        0.46875        0.925925        0.2250695        0        
C4        C        0.53125        0.925925        0.2250695        0        
C4        C        0.59375        0.925925        0.2250695        0        
C4        C        0.65625        0.925925        0.2250695        0        
C4        C        0.71875        0.925925        0.2250695        0        
C4        C        0.78125        0.925925        0.2250695        0        
C4        C        0.84375        0.925925        0.2250695        0        
C4        C        0.9062500000000001        0.925925        0.2250695        0        
C4        C        0.9687500000000001        0.925925        0.2250695        0        
C_FG        C        0.0        0.018519        0.35800550000000003        0.08        
C2        C        0.03125        0.074075        0.35800550000000003        0        
C3        C        0.0        0.092592        0.35800550000000003        0        
C4        C        0.03125        0.037037        0.35800550000000003        0        
C1        C        0.0        0.12963        0.35800550000000003        0        
C2        C        0.03125        0.185185        0.35800550000000003        0        
C_FG        C        0.0        0.203703        0.35800550000000003        0.08        
C4        C        0.03125        0.148148        0.35800550000000003        0        
C1        C        0.0        0.24074099999999998        0.35800550000000003        0        
C2        C        0.03125        0.296297        0.35800550000000003        0        
C3        C        0.0        0.314815        0.35800550000000003        0        
C4        C        0.03125        0.259259        0.35800550000000003        0        
C_FG        C        0.0        0.351852        0.35800550000000003        0.08        
C2        C        0.03125        0.407408        0.35800550000000003        0        
C3        C        0.0        0.42592500000000005        0.35800550000000003        0        
C4        C        0.03125        0.37037        0.35800550000000003        0        
C1        C        0.0        0.46296300000000007        0.35800550000000003        0        
C2        C        0.03125        0.518519        0.35800550000000003        0        
C_FG        C        0.0        0.537037        0.35800550000000003        0.08        
C4        C        0.03125        0.481481        0.35800550000000003        0        
C1        C        0.0        0.574075        0.35800550000000003        0        
C2        C        0.03125        0.62963        0.35800550000000003        0        
C3        C        0.0        0.648148        0.35800550000000003        0        
C4        C        0.03125        0.592592        0.35800550000000003        0        
C1        C        0.0625        0.018519        0.35800550000000003        0        
C2        C        0.09375        0.074075        0.35800550000000003        0        
C3        C        0.0625        0.092592        0.35800550000000003        0        
C4        C        0.09375        0.037037        0.35800550000000003        0        
C1        C        0.0625        0.12963        0.35800550000000003        0        
C2        C        0.09375        0.185185        0.35800550000000003        0        
C3        C        0.0625        0.203703        0.35800550000000003        0        
C4        C        0.09375        0.148148        0.35800550000000003        0        
C1        C        0.0625        0.24074099999999998        0.35800550000000003        0        
C2        C        0.09375        0.296297        0.35800550000000003        0        
C3        C        0.0625        0.314815        0.35800550000000003        0        
C4        C        0.09375        0.259259        0.35800550000000003        0        
C1        C        0.0625        0.351852        0.35800550000000003        0        
C2        C        0.09375        0.407408        0.35800550000000003        0        
C3        C        0.0625        0.42592500000000005        0.35800550000000003        0        
C4        C        0.09375        0.37037        0.35800550000000003        0        
C1        C        0.0625        0.46296300000000007        0.35800550000000003        0        
C2        C        0.09375        0.518519        0.35800550000000003        0        
C3        C        0.0625        0.537037        0.35800550000000003        0        
C4        C        0.09375        0.481481        0.35800550000000003        0        
C1        C        0.0625        0.574075        0.35800550000000003        0        
C2        C        0.09375        0.62963        0.35800550000000003        0        
C3        C        0.0625        0.648148        0.35800550000000003        0        
C4        C        0.09375        0.592592        0.35800550000000003        0        
C1        C        0.125        0.018519        0.35800550000000003        0        
C2        C        0.15625        0.074075        0.35800550000000003        0        
C3        C        0.125        0.092592        0.35800550000000003        0        
C4        C        0.15625        0.037037        0.35800550000000003        0        
C1        C        0.125        0.12963        0.35800550000000003        0        
C2        C        0.15625        0.185185        0.35800550000000003        0        
C3        C        0.125        0.203703        0.35800550000000003        0        
C4        C        0.15625        0.148148        0.35800550000000003        0        
C1        C        0.125        0.24074099999999998        0.35800550000000003        0        
C2        C        0.15625        0.296297        0.35800550000000003        0        
C3        C        0.125        0.314815        0.35800550000000003        0        
C4        C        0.15625        0.259259        0.35800550000000003        0        
C1        C        0.125        0.351852        0.35800550000000003        0        
C2        C        0.15625        0.407408        0.35800550000000003        0        
C3        C        0.125        0.42592500000000005        0.35800550000000003        0        
C4        C        0.15625        0.37037        0.35800550000000003        0        
C1        C        0.125        0.46296300000000007        0.35800550000000003        0        
C2        C        0.15625        0.518519        0.35800550000000003        0        
C3        C        0.125        0.537037        0.35800550000000003        0        
C4        C        0.15625        0.481481        0.35800550000000003        0        
C1        C        0.125        0.574075        0.35800550000000003        0        
C2        C        0.15625        0.62963        0.35800550000000003        0        
C3        C        0.125        0.648148        0.35800550000000003        0        
C4        C        0.15625        0.592592        0.35800550000000003        0        
C1        C        0.1875        0.018519        0.35800550000000003        0        
C2        C        0.21875        0.074075        0.35800550000000003        0        
C3        C        0.1875        0.092592        0.35800550000000003        0        
C4        C        0.21875        0.037037        0.35800550000000003        0        
C1        C        0.1875        0.12963        0.35800550000000003        0        
C2        C        0.21875        0.185185        0.35800550000000003        0        
C3        C        0.1875        0.203703        0.35800550000000003        0        
C4        C        0.21875        0.148148        0.35800550000000003        0        
C1        C        0.1875        0.24074099999999998        0.35800550000000003        0        
C2        C        0.21875        0.296297        0.35800550000000003        0        
C3        C        0.1875        0.314815        0.35800550000000003        0        
C4        C        0.21875        0.259259        0.35800550000000003        0        
C1        C        0.1875        0.351852        0.35800550000000003        0        
C2        C        0.21875        0.407408        0.35800550000000003        0        
C3        C        0.1875        0.42592500000000005        0.35800550000000003        0        
C4        C        0.21875        0.37037        0.35800550000000003        0        
C1        C        0.1875        0.46296300000000007        0.35800550000000003        0        
C2        C        0.21875        0.518519        0.35800550000000003        0        
C3        C        0.1875        0.537037        0.35800550000000003        0        
C4        C        0.21875        0.481481        0.35800550000000003        0        
C1        C        0.1875        0.574075        0.35800550000000003        0        
C2        C        0.21875        0.62963        0.35800550000000003        0        
C3        C        0.1875        0.648148        0.35800550000000003        0        
C4        C        0.21875        0.592592        0.35800550000000003        0        
C_FG        C        0.25        0.018519        0.35800550000000003        0.08        
C2        C        0.28125        0.074075        0.35800550000000003        0        
C3        C        0.25        0.092592        0.35800550000000003        0        
C4        C        0.28125        0.037037        0.35800550000000003        0        
C1        C        0.25        0.12963        0.35800550000000003        0        
C2        C        0.28125        0.185185        0.35800550000000003        0        
C_FG        C        0.25        0.203703        0.35800550000000003        0.08        
C4        C        0.28125        0.148148        0.35800550000000003        0        
C1        C        0.25        0.24074099999999998        0.35800550000000003        0        
C2        C        0.28125        0.296297        0.35800550000000003        0        
C3        C        0.25        0.314815        0.35800550000000003        0        
C4        C        0.28125        0.259259        0.35800550000000003        0        
C_FG        C        0.25        0.351852        0.35800550000000003        0.08        
C2        C        0.28125        0.407408        0.35800550000000003        0        
C3        C        0.25        0.42592500000000005        0.35800550000000003        0        
C4        C        0.28125        0.37037        0.35800550000000003        0        
C1        C        0.25        0.46296300000000007        0.35800550000000003        0        
C2        C        0.28125        0.518519        0.35800550000000003        0        
C_FG        C        0.25        0.537037        0.35800550000000003        0.08        
C4        C        0.28125        0.481481        0.35800550000000003        0        
C1        C        0.25        0.574075        0.35800550000000003        0        
C2        C        0.28125        0.62963        0.35800550000000003        0        
C3        C        0.25        0.648148        0.35800550000000003        0        
C4        C        0.28125        0.592592        0.35800550000000003        0        
C1        C        0.3125        0.018519        0.35800550000000003        0        
C2        C        0.34375        0.074075        0.35800550000000003        0        
C3        C        0.3125        0.092592        0.35800550000000003        0        
C4        C        0.34375        0.037037        0.35800550000000003        0        
C1        C        0.3125        0.12963        0.35800550000000003        0        
C2        C        0.34375        0.185185        0.35800550000000003        0        
C3        C        0.3125        0.203703        0.35800550000000003        0        
C4        C        0.34375        0.148148        0.35800550000000003        0        
C1        C        0.3125        0.24074099999999998        0.35800550000000003        0        
C2        C        0.34375        0.296297        0.35800550000000003        0        
C3        C        0.3125        0.314815        0.35800550000000003        0        
C4        C        0.34375        0.259259        0.35800550000000003        0        
C1        C        0.3125        0.351852        0.35800550000000003        0        
C2        C        0.34375        0.407408        0.35800550000000003        0        
C3        C        0.3125        0.42592500000000005        0.35800550000000003        0        
C4        C        0.34375        0.37037        0.35800550000000003        0        
C1        C        0.3125        0.46296300000000007        0.35800550000000003        0        
C2        C        0.34375        0.518519        0.35800550000000003        0        
C3        C        0.3125        0.537037        0.35800550000000003        0        
C4        C        0.34375        0.481481        0.35800550000000003        0        
C1        C        0.3125        0.574075        0.35800550000000003        0        
C2        C        0.34375        0.62963        0.35800550000000003        0        
C3        C        0.3125        0.648148        0.35800550000000003        0        
C4        C        0.34375        0.592592        0.35800550000000003        0        
C1        C        0.375        0.018519        0.35800550000000003        0        
C2        C        0.40625        0.074075        0.35800550000000003        0        
C3        C        0.375        0.092592        0.35800550000000003        0        
C4        C        0.40625        0.037037        0.35800550000000003        0        
C1        C        0.375        0.12963        0.35800550000000003        0        
C2        C        0.40625        0.185185        0.35800550000000003        0        
C3        C        0.375        0.203703        0.35800550000000003        0        
C4        C        0.40625        0.148148        0.35800550000000003        0        
C1        C        0.375        0.24074099999999998        0.35800550000000003        0        
C2        C        0.40625        0.296297        0.35800550000000003        0        
C3        C        0.375        0.314815        0.35800550000000003        0        
C4        C        0.40625        0.259259        0.35800550000000003        0        
C1        C        0.375        0.351852        0.35800550000000003        0        
C2        C        0.40625        0.407408        0.35800550000000003        0        
C3        C        0.375        0.42592500000000005        0.35800550000000003        0        
C4        C        0.40625        0.37037        0.35800550000000003        0        
C1        C        0.375        0.46296300000000007        0.35800550000000003        0        
C2        C        0.40625        0.518519        0.35800550000000003        0        
C3        C        0.375        0.537037        0.35800550000000003        0        
C4        C        0.40625        0.481481        0.35800550000000003        0        
C1        C        0.375        0.574075        0.35800550000000003        0        
C2        C        0.40625        0.62963        0.35800550000000003        0        
C3        C        0.375        0.648148        0.35800550000000003        0        
C4        C        0.40625        0.592592        0.35800550000000003        0        
C1        C        0.4375        0.018519        0.35800550000000003        0        
C2        C        0.46875        0.074075        0.35800550000000003        0        
C3        C        0.4375        0.092592        0.35800550000000003        0        
C4        C        0.46875        0.037037        0.35800550000000003        0        
C1        C        0.4375        0.12963        0.35800550000000003        0        
C2        C        0.46875        0.185185        0.35800550000000003        0        
C3        C        0.4375        0.203703        0.35800550000000003        0        
C4        C        0.46875        0.148148        0.35800550000000003        0        
C1        C        0.4375        0.24074099999999998        0.35800550000000003        0        
C2        C        0.46875        0.296297        0.35800550000000003        0        
C3        C        0.4375        0.314815        0.35800550000000003        0        
C4        C        0.46875        0.259259        0.35800550000000003        0        
C1        C        0.4375        0.351852        0.35800550000000003        0        
C2        C        0.46875        0.407408        0.35800550000000003        0        
C3        C        0.4375        0.42592500000000005        0.35800550000000003        0        
C4        C        0.46875        0.37037        0.35800550000000003        0        
C1        C        0.4375        0.46296300000000007        0.35800550000000003        0        
C2        C        0.46875        0.518519        0.35800550000000003        0        
C3        C        0.4375        0.537037        0.35800550000000003        0        
C4        C        0.46875        0.481481        0.35800550000000003        0        
C1        C        0.4375        0.574075        0.35800550000000003        0        
C2        C        0.46875        0.62963        0.35800550000000003        0        
C3        C        0.4375        0.648148        0.35800550000000003        0        
C4        C        0.46875        0.592592        0.35800550000000003        0        
C1        C        0.5        0.018519        0.35800550000000003        0        
C2        C        0.53125        0.074075        0.35800550000000003        0        
C3        C        0.5        0.092592        0.35800550000000003        0        
C4        C        0.53125        0.037037        0.35800550000000003        0        
C1        C        0.5        0.12963        0.35800550000000003        0        
C2        C        0.53125        0.185185        0.35800550000000003        0        
C3        C        0.5        0.203703        0.35800550000000003        0        
C4        C        0.53125        0.148148        0.35800550000000003        0        
C1        C        0.5        0.24074099999999998        0.35800550000000003        0        
C2        C        0.53125        0.296297        0.35800550000000003        0        
C3        C        0.5        0.314815        0.35800550000000003        0        
C4        C        0.53125        0.259259        0.35800550000000003        0        
C1        C        0.5        0.351852        0.35800550000000003        0        
C2        C        0.53125        0.407408        0.35800550000000003        0        
C3        C        0.5        0.42592500000000005        0.35800550000000003        0        
C4        C        0.53125        0.37037        0.35800550000000003        0        
C1        C        0.5        0.46296300000000007        0.35800550000000003        0        
C2        C        0.53125        0.518519        0.35800550000000003        0        
C3        C        0.5        0.537037        0.35800550000000003        0        
C4        C        0.53125        0.481481        0.35800550000000003        0        
C1        C        0.5        0.574075        0.35800550000000003        0        
C2        C        0.53125        0.62963        0.35800550000000003        0        
C3        C        0.5        0.648148        0.35800550000000003        0        
C4        C        0.53125        0.592592        0.35800550000000003        0        
C1        C        0.5625        0.018519        0.35800550000000003        0        
C2        C        0.59375        0.074075        0.35800550000000003        0        
C3        C        0.5625        0.092592        0.35800550000000003        0        
C4        C        0.59375        0.037037        0.35800550000000003        0        
C1        C        0.5625        0.12963        0.35800550000000003        0        
C2        C        0.59375        0.185185        0.35800550000000003        0        
C3        C        0.5625        0.203703        0.35800550000000003        0        
C4        C        0.59375        0.148148        0.35800550000000003        0        
C1        C        0.5625        0.24074099999999998        0.35800550000000003        0        
C2        C        0.59375        0.296297        0.35800550000000003        0        
C3        C        0.5625        0.314815        0.35800550000000003        0        
C4        C        0.59375        0.259259        0.35800550000000003        0        
C1        C        0.5625        0.351852        0.35800550000000003        0        
C2        C        0.59375        0.407408        0.35800550000000003        0        
C3        C        0.5625        0.42592500000000005        0.35800550000000003        0        
C4        C        0.59375        0.37037        0.35800550000000003        0        
C1        C        0.5625        0.46296300000000007        0.35800550000000003        0        
C2        C        0.59375        0.518519        0.35800550000000003        0        
C3        C        0.5625        0.537037        0.35800550000000003        0        
C4        C        0.59375        0.481481        0.35800550000000003        0        
C1        C        0.5625        0.574075        0.35800550000000003        0        
C2        C        0.59375        0.62963        0.35800550000000003        0        
C3        C        0.5625        0.648148        0.35800550000000003        0        
C4        C        0.59375        0.592592        0.35800550000000003        0        
C1        C        0.625        0.018519        0.35800550000000003        0        
C2        C        0.65625        0.074075        0.35800550000000003        0        
C3        C        0.625        0.092592        0.35800550000000003        0        
C4        C        0.65625        0.037037        0.35800550000000003        0        
C1        C        0.625        0.12963        0.35800550000000003        0        
C2        C        0.65625        0.185185        0.35800550000000003        0        
C3        C        0.625        0.203703        0.35800550000000003        0        
C4        C        0.65625        0.148148        0.35800550000000003        0        
C1        C        0.625        0.24074099999999998        0.35800550000000003        0        
C2        C        0.65625        0.296297        0.35800550000000003        0        
C3        C        0.625        0.314815        0.35800550000000003        0        
C4        C        0.65625        0.259259        0.35800550000000003        0        
C1        C        0.625        0.351852        0.35800550000000003        0        
C2        C        0.65625        0.407408        0.35800550000000003        0        
C3        C        0.625        0.42592500000000005        0.35800550000000003        0        
C4        C        0.65625        0.37037        0.35800550000000003        0        
C1        C        0.625        0.46296300000000007        0.35800550000000003        0        
C2        C        0.65625        0.518519        0.35800550000000003        0        
C3        C        0.625        0.537037        0.35800550000000003        0        
C4        C        0.65625        0.481481        0.35800550000000003        0        
C1        C        0.625        0.574075        0.35800550000000003        0        
C2        C        0.65625        0.62963        0.35800550000000003        0        
C3        C        0.625        0.648148        0.35800550000000003        0        
C4        C        0.65625        0.592592        0.35800550000000003        0        
C1        C        0.6875        0.018519        0.35800550000000003        0        
C2        C        0.71875        0.074075        0.35800550000000003        0        
C3        C        0.6875        0.092592        0.35800550000000003        0        
C4        C        0.71875        0.037037        0.35800550000000003        0        
C1        C        0.6875        0.12963        0.35800550000000003        0        
C2        C        0.71875        0.185185        0.35800550000000003        0        
C3        C        0.6875        0.203703        0.35800550000000003        0        
C4        C        0.71875        0.148148        0.35800550000000003        0        
C1        C        0.6875        0.24074099999999998        0.35800550000000003        0        
C2        C        0.71875        0.296297        0.35800550000000003        0        
C3        C        0.6875        0.314815        0.35800550000000003        0        
C4        C        0.71875        0.259259        0.35800550000000003        0        
C1        C        0.6875        0.351852        0.35800550000000003        0        
C2        C        0.71875        0.407408        0.35800550000000003        0        
C3        C        0.6875        0.42592500000000005        0.35800550000000003        0        
C4        C        0.71875        0.37037        0.35800550000000003        0        
C1        C        0.6875        0.46296300000000007        0.35800550000000003        0        
C2        C        0.71875        0.518519        0.35800550000000003        0        
C3        C        0.6875        0.537037        0.35800550000000003        0        
C4        C        0.71875        0.481481        0.35800550000000003        0        
C1        C        0.6875        0.574075        0.35800550000000003        0        
C2        C        0.71875        0.62963        0.35800550000000003        0        
C3        C        0.6875        0.648148        0.35800550000000003        0        
C4        C        0.71875        0.592592        0.35800550000000003        0        
C_FG        C        0.75        0.018519        0.35800550000000003        0.08        
C2        C        0.78125        0.074075        0.35800550000000003        0        
C3        C        0.75        0.092592        0.35800550000000003        0        
C4        C        0.78125        0.037037        0.35800550000000003        0        
C1        C        0.75        0.12963        0.35800550000000003        0        
C2        C        0.78125        0.185185        0.35800550000000003        0        
C_FG        C        0.75        0.203703        0.35800550000000003        0.08        
C4        C        0.78125        0.148148        0.35800550000000003        0        
C1        C        0.75        0.24074099999999998        0.35800550000000003        0        
C2        C        0.78125        0.296297        0.35800550000000003        0        
C3        C        0.75        0.314815        0.35800550000000003        0        
C4        C        0.78125        0.259259        0.35800550000000003        0        
C_FG        C        0.75        0.351852        0.35800550000000003        0.08        
C2        C        0.78125        0.407408        0.35800550000000003        0        
C3        C        0.75        0.42592500000000005        0.35800550000000003        0        
C4        C        0.78125        0.37037        0.35800550000000003        0        
C1        C        0.75        0.46296300000000007        0.35800550000000003        0        
C2        C        0.78125        0.518519        0.35800550000000003        0        
C_FG        C        0.75        0.537037        0.35800550000000003        0.08        
C4        C        0.78125        0.481481        0.35800550000000003        0        
C1        C        0.75        0.574075        0.35800550000000003        0        
C2        C        0.78125        0.62963        0.35800550000000003        0        
C3        C        0.75        0.648148        0.35800550000000003        0        
C4        C        0.78125        0.592592        0.35800550000000003        0        
C1        C        0.8125        0.018519        0.35800550000000003        0        
C2        C        0.84375        0.074075        0.35800550000000003        0        
C3        C        0.8125        0.092592        0.35800550000000003        0        
C4        C        0.84375        0.037037        0.35800550000000003        0        
C1        C        0.8125        0.12963        0.35800550000000003        0        
C2        C        0.84375        0.185185        0.35800550000000003        0        
C3        C        0.8125        0.203703        0.35800550000000003        0        
C4        C        0.84375        0.148148        0.35800550000000003        0        
C1        C        0.8125        0.24074099999999998        0.35800550000000003        0        
C2        C        0.84375        0.296297        0.35800550000000003        0        
C3        C        0.8125        0.314815        0.35800550000000003        0        
C4        C        0.84375        0.259259        0.35800550000000003        0        
C1        C        0.8125        0.351852        0.35800550000000003        0        
C2        C        0.84375        0.407408        0.35800550000000003        0        
C3        C        0.8125        0.42592500000000005        0.35800550000000003        0        
C4        C        0.84375        0.37037        0.35800550000000003        0        
C1        C        0.8125        0.46296300000000007        0.35800550000000003        0        
C2        C        0.84375        0.518519        0.35800550000000003        0        
C3        C        0.8125        0.537037        0.35800550000000003        0        
C4        C        0.84375        0.481481        0.35800550000000003        0        
C1        C        0.8125        0.574075        0.35800550000000003        0        
C2        C        0.84375        0.62963        0.35800550000000003        0        
C3        C        0.8125        0.648148        0.35800550000000003        0        
C4        C        0.84375        0.592592        0.35800550000000003        0        
C1        C        0.875        0.018519        0.35800550000000003        0        
C2        C        0.9062500000000001        0.074075        0.35800550000000003        0        
C3        C        0.875        0.092592        0.35800550000000003        0        
C4        C        0.9062500000000001        0.037037        0.35800550000000003        0        
C1        C        0.875        0.12963        0.35800550000000003        0        
C2        C        0.9062500000000001        0.185185        0.35800550000000003        0        
C3        C        0.875        0.203703        0.35800550000000003        0        
C4        C        0.9062500000000001        0.148148        0.35800550000000003        0        
C1        C        0.875        0.24074099999999998        0.35800550000000003        0        
C2        C        0.9062500000000001        0.296297        0.35800550000000003        0        
C3        C        0.875        0.314815        0.35800550000000003        0        
C4        C        0.9062500000000001        0.259259        0.35800550000000003        0        
C1        C        0.875        0.351852        0.35800550000000003        0        
C2        C        0.9062500000000001        0.407408        0.35800550000000003        0        
C3        C        0.875        0.42592500000000005        0.35800550000000003        0        
C4        C        0.9062500000000001        0.37037        0.35800550000000003        0        
C1        C        0.875        0.46296300000000007        0.35800550000000003        0        
C2        C        0.9062500000000001        0.518519        0.35800550000000003        0        
C3        C        0.875        0.537037        0.35800550000000003        0        
C4        C        0.9062500000000001        0.481481        0.35800550000000003        0        
C1        C        0.875        0.574075        0.35800550000000003        0        
C2        C        0.9062500000000001        0.62963        0.35800550000000003        0        
C3        C        0.875        0.648148        0.35800550000000003        0        
C4        C        0.9062500000000001        0.592592        0.35800550000000003        0        
C1        C        0.9375        0.018519        0.35800550000000003        0        
C2        C        0.9687500000000001        0.074075        0.35800550000000003        0        
C3        C        0.9375        0.092592        0.35800550000000003        0        
C4        C        0.9687500000000001        0.037037        0.35800550000000003        0        
C1        C        0.9375        0.12963        0.35800550000000003        0        
C2        C        0.9687500000000001        0.185185        0.35800550000000003        0        
C3        C        0.9375        0.203703        0.35800550000000003        0        
C4        C        0.9687500000000001        0.148148        0.35800550000000003        0        
C1        C        0.9375        0.24074099999999998        0.35800550000000003        0        
C2        C        0.9687500000000001        0.296297        0.35800550000000003        0        
C3        C        0.9375        0.314815        0.35800550000000003        0        
C4        C        0.9687500000000001        0.259259        0.35800550000000003        0        
C1        C        0.9375        0.351852        0.35800550000000003        0        
C2        C        0.9687500000000001        0.407408        0.35800550000000003        0        
C3        C        0.9375        0.42592500000000005        0.35800550000000003        0        
C4        C        0.9687500000000001        0.37037        0.35800550000000003        0        
C1        C        0.9375        0.46296300000000007        0.35800550000000003        0        
C2        C        0.9687500000000001        0.518519        0.35800550000000003        0        
C3        C        0.9375        0.537037        0.35800550000000003        0        
C4        C        0.9687500000000001        0.481481        0.35800550000000003        0        
C1        C        0.9375        0.574075        0.35800550000000003        0        
C2        C        0.9687500000000001        0.62963        0.35800550000000003        0        
C3        C        0.9375        0.648148        0.35800550000000003        0        
C4        C        0.9687500000000001        0.592592        0.35800550000000003        0        
C_FG        C        0.0        0.685186        0.35800550000000003        0.08        
C1        C        0.0625        0.685186        0.35800550000000003        0        
C1        C        0.125        0.685186        0.35800550000000003        0        
C1        C        0.1875        0.685186        0.35800550000000003        0        
C_FG        C        0.25        0.685186        0.35800550000000003        0.08        
C1        C        0.3125        0.685186        0.35800550000000003        0        
C1        C        0.375        0.685186        0.35800550000000003        0        
C1        C        0.4375        0.685186        0.35800550000000003        0        
C1        C        0.5        0.685186        0.35800550000000003        0        
C1        C        0.5625        0.685186        0.35800550000000003        0        
C1        C        0.625        0.685186        0.35800550000000003        0        
C1        C        0.6875        0.685186        0.35800550000000003        0        
C_FG        C        0.75        0.685186        0.35800550000000003        0.08        
C1        C        0.8125        0.685186        0.35800550000000003        0        
C1        C        0.875        0.685186        0.35800550000000003        0        
C1        C        0.9375        0.685186        0.35800550000000003        0        
C2        C        0.03125        0.740741        0.35800550000000003        0        
C2        C        0.09375        0.740741        0.35800550000000003        0        
C2        C        0.15625        0.740741        0.35800550000000003        0        
C2        C        0.21875        0.740741        0.35800550000000003        0        
C2        C        0.28125        0.740741        0.35800550000000003        0        
C2        C        0.34375        0.740741        0.35800550000000003        0        
C2        C        0.40625        0.740741        0.35800550000000003        0        
C2        C        0.46875        0.740741        0.35800550000000003        0        
C2        C        0.53125        0.740741        0.35800550000000003        0        
C2        C        0.59375        0.740741        0.35800550000000003        0        
C2        C        0.65625        0.740741        0.35800550000000003        0        
C2        C        0.71875        0.740741        0.35800550000000003        0        
C2        C        0.78125        0.740741        0.35800550000000003        0        
C2        C        0.84375        0.740741        0.35800550000000003        0        
C2        C        0.9062500000000001        0.740741        0.35800550000000003        0        
C2        C        0.9687500000000001        0.740741        0.35800550000000003        0        
C3        C        0.0        0.759259        0.35800550000000003        0        
C3        C        0.0625        0.759259        0.35800550000000003        0        
C3        C        0.125        0.759259        0.35800550000000003        0        
C3        C        0.1875        0.759259        0.35800550000000003        0        
C3        C        0.25        0.759259        0.35800550000000003        0        
C3        C        0.3125        0.759259        0.35800550000000003        0        
C3        C        0.375        0.759259        0.35800550000000003        0        
C3        C        0.4375        0.759259        0.35800550000000003        0        
C3        C        0.5        0.759259        0.35800550000000003        0        
C3        C        0.5625        0.759259        0.35800550000000003        0        
C3        C        0.625        0.759259        0.35800550000000003        0        
C3        C        0.6875        0.759259        0.35800550000000003        0        
C3        C        0.75        0.759259        0.35800550000000003        0        
C3        C        0.8125        0.759259        0.35800550000000003        0        
C3        C        0.875        0.759259        0.35800550000000003        0        
C3        C        0.9375        0.759259        0.35800550000000003        0        
C4        C        0.03125        0.703703        0.35800550000000003        0        
C4        C        0.09375        0.703703        0.35800550000000003        0        
C4        C        0.15625        0.703703        0.35800550000000003        0        
C4        C        0.21875        0.703703        0.35800550000000003        0        
C4        C        0.28125        0.703703        0.35800550000000003        0        
C4        C        0.34375        0.703703        0.35800550000000003        0        
C4        C        0.40625        0.703703        0.35800550000000003        0        
C4        C        0.46875        0.703703        0.35800550000000003        0        
C4        C        0.53125        0.703703        0.35800550000000003        0        
C4        C        0.59375        0.703703        0.35800550000000003        0        
C4        C        0.65625        0.703703        0.35800550000000003        0        
C4        C        0.71875        0.703703        0.35800550000000003        0        
C4        C        0.78125        0.703703        0.35800550000000003        0        
C4        C        0.84375        0.703703        0.35800550000000003        0        
C4        C        0.9062500000000001        0.703703        0.35800550000000003        0        
C4        C        0.9687500000000001        0.703703        0.35800550000000003        0        
C1        C        0.0        0.796297        0.35800550000000003        0        
C1        C        0.0625        0.796297        0.35800550000000003        0        
C1        C        0.125        0.796297        0.35800550000000003        0        
C1        C        0.1875        0.796297        0.35800550000000003        0        
C1        C        0.25        0.796297        0.35800550000000003        0        
C1        C        0.3125        0.796297        0.35800550000000003        0        
C1        C        0.375        0.796297        0.35800550000000003        0        
C1        C        0.4375        0.796297        0.35800550000000003        0        
C1        C        0.5        0.796297        0.35800550000000003        0        
C1        C        0.5625        0.796297        0.35800550000000003        0        
C1        C        0.625        0.796297        0.35800550000000003        0        
C1        C        0.6875        0.796297        0.35800550000000003        0        
C1        C        0.75        0.796297        0.35800550000000003        0        
C1        C        0.8125        0.796297        0.35800550000000003        0        
C1        C        0.875        0.796297        0.35800550000000003        0        
C1        C        0.9375        0.796297        0.35800550000000003        0        
C2        C        0.03125        0.851852        0.35800550000000003        0        
C2        C        0.09375        0.851852        0.35800550000000003        0        
C2        C        0.15625        0.851852        0.35800550000000003        0        
C2        C        0.21875        0.851852        0.35800550000000003        0        
C2        C        0.28125        0.851852        0.35800550000000003        0        
C2        C        0.34375        0.851852        0.35800550000000003        0        
C2        C        0.40625        0.851852        0.35800550000000003        0        
C2        C        0.46875        0.851852        0.35800550000000003        0        
C2        C        0.53125        0.851852        0.35800550000000003        0        
C2        C        0.59375        0.851852        0.35800550000000003        0        
C2        C        0.65625        0.851852        0.35800550000000003        0        
C2        C        0.71875        0.851852        0.35800550000000003        0        
C2        C        0.78125        0.851852        0.35800550000000003        0        
C2        C        0.84375        0.851852        0.35800550000000003        0        
C2        C        0.9062500000000001        0.851852        0.35800550000000003        0        
C2        C        0.9687500000000001        0.851852        0.35800550000000003        0        
C_FG        C        0.0        0.87037        0.35800550000000003        0.08        
C3        C        0.0625        0.87037        0.35800550000000003        0        
C3        C        0.125        0.87037        0.35800550000000003        0        
C3        C        0.1875        0.87037        0.35800550000000003        0        
C_FG        C        0.25        0.87037        0.35800550000000003        0.08        
C3        C        0.3125        0.87037        0.35800550000000003        0        
C3        C        0.375        0.87037        0.35800550000000003        0        
C3        C        0.4375        0.87037        0.35800550000000003        0        
C3        C        0.5        0.87037        0.35800550000000003        0        
C3        C        0.5625        0.87037        0.35800550000000003        0        
C3        C        0.625        0.87037        0.35800550000000003        0        
C3        C        0.6875        0.87037        0.35800550000000003        0        
C_FG        C        0.75        0.87037        0.35800550000000003        0.08        
C3        C        0.8125        0.87037        0.35800550000000003        0        
C3        C        0.875        0.87037        0.35800550000000003        0        
C3        C        0.9375        0.87037        0.35800550000000003        0        
C4        C        0.03125        0.814814        0.35800550000000003        0        
C4        C        0.09375        0.814814        0.35800550000000003        0        
C4        C        0.15625        0.814814        0.35800550000000003        0        
C4        C        0.21875        0.814814        0.35800550000000003        0        
C4        C        0.28125        0.814814        0.35800550000000003        0        
C4        C        0.34375        0.814814        0.35800550000000003        0        
C4        C        0.40625        0.814814        0.35800550000000003        0        
C4        C        0.46875        0.814814        0.35800550000000003        0        
C4        C        0.53125        0.814814        0.35800550000000003        0        
C4        C        0.59375        0.814814        0.35800550000000003        0        
C4        C        0.65625        0.814814        0.35800550000000003        0        
C4        C        0.71875        0.814814        0.35800550000000003        0        
C4        C        0.78125        0.814814        0.35800550000000003        0        
C4        C        0.84375        0.814814        0.35800550000000003        0        
C4        C        0.9062500000000001        0.814814        0.35800550000000003        0        
C4        C        0.9687500000000001        0.814814        0.35800550000000003        0        
C1        C        0.0        0.907408        0.35800550000000003        0        
C1        C        0.0625        0.907408        0.35800550000000003        0        
C1        C        0.125        0.907408        0.35800550000000003        0        
C1        C        0.1875        0.907408        0.35800550000000003        0        
C1        C        0.25        0.907408        0.35800550000000003        0        
C1        C        0.3125        0.907408        0.35800550000000003        0        
C1        C        0.375        0.907408        0.35800550000000003        0        
C1        C        0.4375        0.907408        0.35800550000000003        0        
C1        C        0.5        0.907408        0.35800550000000003        0        
C1        C        0.5625        0.907408        0.35800550000000003        0        
C1        C        0.625        0.907408        0.35800550000000003        0        
C1        C        0.6875        0.907408        0.35800550000000003        0        
C1        C        0.75        0.907408        0.35800550000000003        0        
C1        C        0.8125        0.907408        0.35800550000000003        0        
C1        C        0.875        0.907408        0.35800550000000003        0        
C1        C        0.9375        0.907408        0.35800550000000003        0        
C2        C        0.03125        0.962963        0.35800550000000003        0        
C2        C        0.09375        0.962963        0.35800550000000003        0        
C2        C        0.15625        0.962963        0.35800550000000003        0        
C2        C        0.21875        0.962963        0.35800550000000003        0        
C2        C        0.28125        0.962963        0.35800550000000003        0        
C2        C        0.34375        0.962963        0.35800550000000003        0        
C2        C        0.40625        0.962963        0.35800550000000003        0        
C2        C        0.46875        0.962963        0.35800550000000003        0        
C2        C        0.53125        0.962963        0.35800550000000003        0        
C2        C        0.59375        0.962963        0.35800550000000003        0        
C2        C        0.65625        0.962963        0.35800550000000003        0        
C2        C        0.71875        0.962963        0.35800550000000003        0        
C2        C        0.78125        0.962963        0.35800550000000003        0        
C2        C        0.84375        0.962963        0.35800550000000003        0        
C2        C        0.9062500000000001        0.962963        0.35800550000000003        0        
C2        C        0.9687500000000001        0.962963        0.35800550000000003        0        
C3        C        0.0        0.9814809999999999        0.35800550000000003        0        
C3        C        0.0625        0.9814809999999999        0.35800550000000003        0        
C3        C        0.125        0.9814809999999999        0.35800550000000003        0        
C3        C        0.1875        0.9814809999999999        0.35800550000000003        0        
C3        C        0.25        0.9814809999999999        0.35800550000000003        0        
C3        C        0.3125        0.9814809999999999        0.35800550000000003        0        
C3        C        0.375        0.9814809999999999        0.35800550000000003        0        
C3        C        0.4375        0.9814809999999999        0.35800550000000003        0        
C3        C        0.5        0.9814809999999999        0.35800550000000003        0        
C3        C        0.5625        0.9814809999999999        0.35800550000000003        0        
C3        C        0.625        0.9814809999999999        0.35800550000000003        0        
C3        C        0.6875        0.9814809999999999        0.35800550000000003        0        
C3        C        0.75        0.9814809999999999        0.35800550000000003        0        
C3        C        0.8125        0.9814809999999999        0.35800550000000003        0        
C3        C        0.875        0.9814809999999999        0.35800550000000003        0        
C3        C        0.9375        0.9814809999999999        0.35800550000000003        0        
C4        C        0.03125        0.925925        0.35800550000000003        0        
C4        C        0.09375        0.925925        0.35800550000000003        0        
C4        C        0.15625        0.925925        0.35800550000000003        0        
C4        C        0.21875        0.925925        0.35800550000000003        0        
C4        C        0.28125        0.925925        0.35800550000000003        0        
C4        C        0.34375        0.925925        0.35800550000000003        0        
C4        C        0.40625        0.925925        0.35800550000000003        0        
C4        C        0.46875        0.925925        0.35800550000000003        0        
C4        C        0.53125        0.925925        0.35800550000000003        0        
C4        C        0.59375        0.925925        0.35800550000000003        0        
C4        C        0.65625        0.925925        0.35800550000000003        0        
C4        C        0.71875        0.925925        0.35800550000000003        0        
C4        C        0.78125        0.925925        0.35800550000000003        0        
C4        C        0.84375        0.925925        0.35800550000000003        0        
C4        C        0.9062500000000001        0.925925        0.35800550000000003        0        
C4        C        0.9687500000000001        0.925925        0.35800550000000003        0        
C_COOH        C        0.0        0.018519        0.03181503968253968        0.55        
C_COOH        C        0.0        0.203703        0.03181503968253968        0.55        
C_COOH        C        0.0        0.351852        0.03181503968253968        0.55        
C_COOH        C        0.0        0.537037        0.03181503968253968        0.55        
C_COOH        C        0.25        0.018519        0.03181503968253968        0.55        
C_COOH        C        0.25        0.203703        0.03181503968253968        0.55        
C_COOH        C        0.25        0.351852        0.03181503968253968        0.55        
C_COOH        C        0.25        0.537037        0.03181503968253968        0.55        
C_COOH        C        0.75        0.018519        0.03181503968253968        0.55        
C_COOH        C        0.75        0.203703        0.03181503968253968        0.55        
C_COOH        C        0.75        0.351852        0.03181503968253968        0.55        
C_COOH        C        0.75        0.537037        0.03181503968253968        0.55        
C_COOH        C        0.0        0.685186        0.03181503968253968        0.55        
C_COOH        C        0.25        0.685186        0.03181503968253968        0.55        
C_COOH        C        0.75        0.685186        0.03181503968253968        0.55        
C_COOH        C        0.0        0.87037        0.03181503968253968        0.55        
C_COOH        C        0.25        0.87037        0.03181503968253968        0.55        
C_COOH        C        0.75        0.87037        0.03181503968253968        0.55        
C_COOH        C        0.0        0.018519        0.4183229761904762        0.55        
C_COOH        C        0.0        0.203703        0.4183229761904762        0.55        
C_COOH        C        0.0        0.351852        0.4183229761904762        0.55        
C_COOH        C        0.0        0.537037        0.4183229761904762        0.55        
C_COOH        C        0.25        0.018519        0.4183229761904762        0.55        
C_COOH        C        0.25        0.203703        0.4183229761904762        0.55        
C_COOH        C        0.25        0.351852        0.4183229761904762        0.55        
C_COOH        C        0.25        0.537037        0.4183229761904762        0.55        
C_COOH        C        0.75        0.018519        0.4183229761904762        0.55        
C_COOH        C        0.75        0.203703        0.4183229761904762        0.55        
C_COOH        C        0.75        0.351852        0.4183229761904762        0.55        
C_COOH        C        0.75        0.537037        0.4183229761904762        0.55        
C_COOH        C        0.0        0.685186        0.4183229761904762        0.55        
C_COOH        C        0.25        0.685186        0.4183229761904762        0.55        
C_COOH        C        0.75        0.685186        0.4183229761904762        0.55        
C_COOH        C        0.0        0.87037        0.4183229761904762        0.55        
C_COOH        C        0.25        0.87037        0.4183229761904762        0.55        
C_COOH        C        0.75        0.87037        0.4183229761904762        0.55        
O1_COOH        O        -0.028735711144023998        0.02041314843421233        0.014550793650793648        -0.5        
O1_COOH        O        0.027012743194032553        0.21394113327245187        0.014550793650793648        -0.5        
O1_COOH        O        0.0031052223529749305        0.3812405554983206        0.014550793650793648        -0.5        
O1_COOH        O        0.022261405443285552        0.555786938348382        0.014550793650793648        -0.5        
O1_COOH        O        0.231779340654417        0.041409115269952425        0.014550793650793648        -0.5        
O1_COOH        O        0.2586413832001328        0.23190140217887256        0.014550793650793648        -0.5        
O1_COOH        O        0.22130474579327586        0.3543089395302687        0.014550793650793648        -0.5        
O1_COOH        O        0.2266094457053164        0.5542774489582591        0.014550793650793648        -0.5        
O1_COOH        O        0.7338678067445121        0.04300512524613308        0.014550793650793648        -0.5        
O1_COOH        O        0.7404354851842401        0.2315855628451272        0.014550793650793648        -0.5        
O1_COOH        O        0.7268454469228129        0.3694249915649428        0.014550793650793648        -0.5        
O1_COOH        O        0.7488030651097792        0.5665723954321185        0.014550793650793648        -0.5        
O1_COOH        O        -0.002797687839287316        0.7146070879994837        0.014550793650793648        -0.5        
O1_COOH        O        0.2263990443953715        0.7021215523778532        0.014550793650793648        -0.5        
O1_COOH        O        0.7212062071114822        0.6854433498566499        0.014550793650793648        -0.5        
O1_COOH        O        0.028530336054694034        0.8743678649265862        0.014550793650793648        -0.5        
O1_COOH        O        0.24013230739640232        0.8981409966728056        0.014550793650793648        -0.5        
O1_COOH        O        0.7225612445853317        0.8793350254543236        0.014550793650793648        -0.5        
O1_COOH        O        -0.02316939479068177        0.036071362722591836        0.4355872222222222        -0.5        
O1_COOH        O        0.0006697491120695689        0.23325594791830295        0.4355872222222222        -0.5        
O1_COOH        O        0.026247010685404953        0.36400934081739733        0.4355872222222222        -0.5        
O1_COOH        O        0.025831295660758504        0.5500990800556107        0.4355872222222222        -0.5        
O1_COOH        O        0.22825095984205154        0.037892316324880805        0.4355872222222222        -0.5        
O1_COOH        O        0.2704101944006891        0.22455517892710808        0.4355872222222222        -0.5        
O1_COOH        O        0.2269817553604239        0.3696127180966199        0.4355872222222222        -0.5        
O1_COOH        O        0.22260163080096293        0.5461312702272825        0.4355872222222222        -0.5        
O1_COOH        O        0.7640016771546395        0.04434984328628474        0.4355872222222222        -0.5        
O1_COOH        O        0.7337662025823581        0.228118251517787        0.4355872222222222        -0.5        
O1_COOH        O        0.7380850013821674        0.3787634844677439        0.4355872222222222        -0.5        
O1_COOH        O        0.7777784228799038        0.544821920270115        0.4355872222222222        -0.5        
O1_COOH        O        -0.027787957938397063        0.6929349733979691        0.4355872222222222        -0.5        
O1_COOH        O        0.2212055786545902        0.6853535885719435        0.4355872222222222        -0.5        
O1_COOH        O        0.7226428782570589        0.6944102097818662        0.4355872222222222        -0.5        
O1_COOH        O        -0.027259151380020066        0.8798949836841945        0.4355872222222222        -0.5        
O1_COOH        O        0.2509478437492391        0.8999149256728963        0.4355872222222222        -0.5        
O1_COOH        O        0.7381507554047012        0.8973120645006438        0.4355872222222222        -0.5        
O2_COOH        O        0.02797844284177558        0.01667476780282783        0.0        -0.58        
O2_COOH        O        -0.02630088003271762        0.19373467086646656        0.0        -0.58        
O2_COOH        O        -0.003023390849047449        0.3232379171227398        0.0        -0.58        
O2_COOH        O        -0.02167475364193605        0.5187811762363997        0.0        -0.58        
O2_COOH        O        0.2677404927786475        -0.003767895163727476        0.0        -0.58        
O2_COOH        O        0.2415863420004806        0.17624770649301957        0.0        -0.58        
O2_COOH        O        0.27793905206066266        0.3494598078642707        0.0        -0.58        
O2_COOH        O        0.27277414618664664        0.5202508862571521        0.0        -0.58        
O2_COOH        O        0.765707063752449        -0.0053218457052563745        0.0        -0.58        
O2_COOH        O        0.7593124624527591        0.17655522255559725        0.0        -0.58        
O2_COOH        O        0.7725443642772579        0.33474210710072494        0.0        -0.58        
O2_COOH        O        0.7511653922272369        0.5082799468418212        0.0        -0.58        
O2_COOH        O        0.0027239607507298174        0.6565402419461719        0.0        -0.58        
O2_COOH        O        0.27297900281937876        0.6686967479392866        0.0        -0.58        
O2_COOH        O        0.7780349939659266        0.6849354320492529        0.0        -0.58        
O2_COOH        O        -0.027778479974347535        0.8664774902661355        0.0        -0.58        
O2_COOH        O        0.25960765063743285        0.8433308486396963        0.0        -0.58        
O2_COOH        O        0.7767156656110253        0.8616412286467627        0.0        -0.58        
O2_COOH        O        0.022558814869087878        0.0014291923139884868        0.45013801587301594        -0.58        
O2_COOH        O        -0.0006520993044665027        0.17492885691392693        0.45013801587301594        -0.58        
O2_COOH        O        -0.025555326769137365        0.34001503993791105        0.45013801587301594        -0.58        
O2_COOH        O        -0.02515056702620833        0.524319143170255        0.45013801587301594        -0.58        
O2_COOH        O        0.2711758906495408        -0.0003437739447485138        0.45013801587301594        -0.58        
O2_COOH        O        0.23012767268688372        0.183400335718803        0.45013801587301594        -0.58        
O2_COOH        O        0.27241164795743433        0.3345593277009012        0.45013801587301594        -0.58        
O2_COOH        O        0.2766763436878625        0.5281823898437936        0.45013801587301594        -0.58        
O2_COOH        O        0.7363673071462669        -0.006631126573097776        0.45013801587301594        -0.58        
O2_COOH        O        0.7658059903538845        0.17993116029732958        0.45013801587301594        -0.58        
O2_COOH        O        0.7616010042736734        0.32564971023607714        0.45013801587301594        -0.58        
O2_COOH        O        0.7229536181344275        0.5294572346789496        0.45013801587301594        -0.58        
O2_COOH        O        0.02705566564796121        0.6776412342480446        0.45013801587301594        -0.58        
O2_COOH        O        0.27803560586117915        0.6850228278669855        0.45013801587301594        -0.58        
O2_COOH        O        0.7766361832203882        0.6762048745686859        0.45013801587301594        -0.58        
O2_COOH        O        0.02654079465716675        0.8610960269202522        0.45013801587301594        -0.58        
O2_COOH        O        0.249077134648657        0.8416036677501875        0.45013801587301594        -0.58        
O2_COOH        O        0.761536983057986        0.8441379360746408        0.45013801587301594        -0.58        
H_COOH        H        0.0476198173136272        0.01538008334156045        0.023165079365079368        0.45        
H_COOH        H        -0.044764574977545664        0.18673672296501811        0.023165079365079368        0.45        
H_COOH        H        -0.005145866076733915        0.30315031181392355        0.023165079365079368        0.45        
H_COOH        H        -0.0368908239312638        0.5059652567493578        0.023165079365079368        0.45        
H_COOH        H        0.28019464056489657        -0.019413699907087165        0.023165079365079368        0.45        
H_COOH        H        0.2356798014406214        0.15697359234539407        0.023165079365079368        0.45        
H_COOH        H        0.29755277348952863        0.34778044558481175        0.023165079365079368        0.45        
H_COOH        H        0.2887620099880129        0.5084667298687887        0.023165079365079368        0.45        
H_COOH        H        0.7767337074709643        -0.02205855192120741        0.023165079365079368        0.45        
H_COOH        H        0.7658499800452889        0.15749699026298972        0.023165079365079368        0.45        
H_COOH        H        0.7883709170094311        0.3227306518704091        0.023165079365079368        0.45        
H_COOH        H        0.7519835187138034        0.48809197380197183        0.023165079365079368        0.45        
H_COOH        H        0.0046362306170078735        0.6364304000887402        0.023165079365079368        0.45        
H_COOH        H        0.28911067969351995        0.6571209938375737        0.023165079365079368        0.45        
H_COOH        H        0.7977160683529069        0.684759528801917        0.023165079365079368        0.45        
H_COOH        H        -0.04727947688545247        0.8637448778133793        0.023165079365079368        0.45        
H_COOH        H        0.2663523956910346        0.8243488738288672        0.023165079365079368        0.45        
H_COOH        H        0.7954705475570434        0.8555134727956718        0.023165079365079368        0.45        
H_COOH        H        0.03839551217889464        -0.010568162732221728        0.4269729365079365        0.45        
H_COOH        H        -0.0011098848468676084        0.15472888643464294        0.4269729365079365        0.45        
H_COOH        H        -0.043495629796784584        0.3317052792231119        0.4269729365079365        0.45        
H_COOH        H        -0.0428067213709943        0.5153909769429538        0.4269729365079365        0.45        
H_COOH        H        0.2860417500676204        -0.013585783470507354        0.4269729365079365        0.45        
H_COOH        H        0.21617693838077995        0.16914749705374843        0.4269729365079365        0.45        
H_COOH        H        0.2881450314252949        0.3224195580158467        0.4269729365079365        0.45        
H_COOH        H        0.295403620930425        0.5219662928699967        0.4269729365079365        0.45        
H_COOH        H        0.7267969094327781        -0.024286971711809238        0.4269729365079365        0.45        
H_COOH        H        0.7769020823413763        0.16324289754713045        0.4269729365079365        0.45        
H_COOH        H        0.7697451197441936        0.30725522744861006        0.4269729365079365        0.45        
H_COOH        H        0.7039665673777208        0.5241361019082146        0.4269729365079365        0.45        
H_COOH        H        0.046049233788335024        0.6723446718097915        0.4269729365079365        0.45        
H_COOH        H        0.29771710980972815        0.6849082780692706        0.4269729365079365        0.45        
H_COOH        H        0.7953352670861754        0.6698999615764689        0.4269729365079365        0.45        
H_COOH        H        0.04517291402099223        0.8545855295658672        0.4269729365079365        0.45        
H_COOH        H        0.24842926642899468        0.8214091806196657        0.4269729365079365        0.45        
H_COOH        H        0.7696361544735932        0.8257225512856696        0.4269729365079365        0.45        
