data_graphite_ortho

_audit_creation_method RASPA-1.0
_audit_creation_date 2012-2-3
_audit_author_name 'David Dubbeldam'

_cell_length_a    39.36    
_cell_length_b    38.339999999999996    
_cell_length_c    13.7    
_cell_angle_alpha 90
_cell_angle_beta  90
_cell_angle_gamma 90
_cell_volume      20674.15      

_symmetry_cell_setting          triclinic
_symmetry_space_group_name_Hall 'P 1'
_symmetry_space_group_name_H-M  'P 1'
_symmetry_Int_Tables_number     1

_symmetry_equiv_pos_as_xyz 'x,y,z'

loop_
_atom_site_label
_atom_site_type_symbol
_atom_site_fract_x
_atom_site_fract_y
_atom_site_fract_z
_atom_site_charge
C1        C        0.0        0.018519        0.12913861313868613        0        
C_FG        C        0.03125        0.074075        0.12913861313868613        0.2        
C3        C        0.0        0.092592        0.12913861313868613        0        
C4        C        0.03125        0.037037        0.12913861313868613        0        
C1        C        0.0        0.12963        0.12913861313868613        0        
C2        C        0.03125        0.185185        0.12913861313868613        0        
C3        C        0.0        0.203703        0.12913861313868613        0        
C_FG        C        0.03125        0.148148        0.12913861313868613        0.2        
C1        C        0.0        0.24074099999999998        0.12913861313868613        0        
C_FG        C        0.03125        0.296297        0.12913861313868613        0.2        
C3        C        0.0        0.314815        0.12913861313868613        0        
C4        C        0.03125        0.259259        0.12913861313868613        0        
C1        C        0.0        0.351852        0.12913861313868613        0        
C_FG        C        0.03125        0.407408        0.12913861313868613        0.2        
C3        C        0.0        0.425925        0.12913861313868613        0        
C4        C        0.03125        0.37037        0.12913861313868613        0        
C1        C        0.0        0.46296300000000007        0.12913861313868613        0        
C2        C        0.03125        0.518519        0.12913861313868613        0        
C3        C        0.0        0.537037        0.12913861313868613        0        
C_FG        C        0.03125        0.481481        0.12913861313868613        0.2        
C1        C        0.0        0.574075        0.12913861313868613        0        
C_FG        C        0.03125        0.62963        0.12913861313868613        0.2        
C3        C        0.0        0.648148        0.12913861313868613        0        
C4        C        0.03125        0.592592        0.12913861313868613        0        
C1        C        0.0625        0.018519        0.12913861313868613        0        
C2        C        0.09375        0.074075        0.12913861313868613        0        
C3        C        0.0625        0.092592        0.12913861313868613        0        
C4        C        0.09375        0.037037        0.12913861313868613        0        
C1        C        0.0625        0.12963        0.12913861313868613        0        
C2        C        0.09375        0.185185        0.12913861313868613        0        
C3        C        0.0625        0.203703        0.12913861313868613        0        
C4        C        0.09375        0.148148        0.12913861313868613        0        
C1        C        0.0625        0.24074099999999998        0.12913861313868613        0        
C2        C        0.09375        0.296297        0.12913861313868613        0        
C3        C        0.0625        0.314815        0.12913861313868613        0        
C4        C        0.09375        0.259259        0.12913861313868613        0        
C1        C        0.0625        0.351852        0.12913861313868613        0        
C2        C        0.09375        0.407408        0.12913861313868613        0        
C3        C        0.0625        0.425925        0.12913861313868613        0        
C4        C        0.09375        0.37037        0.12913861313868613        0        
C1        C        0.0625        0.46296300000000007        0.12913861313868613        0        
C2        C        0.09375        0.518519        0.12913861313868613        0        
C3        C        0.0625        0.537037        0.12913861313868613        0        
C4        C        0.09375        0.481481        0.12913861313868613        0        
C1        C        0.0625        0.574075        0.12913861313868613        0        
C2        C        0.09375        0.62963        0.12913861313868613        0        
C3        C        0.0625        0.648148        0.12913861313868613        0        
C4        C        0.09375        0.592592        0.12913861313868613        0        
C1        C        0.125        0.018519        0.12913861313868613        0        
C_FG        C        0.15625        0.074075        0.12913861313868613        0.2        
C3        C        0.125        0.092592        0.12913861313868613        0        
C4        C        0.15625        0.037037        0.12913861313868613        0        
C1        C        0.125        0.12963        0.12913861313868613        0        
C2        C        0.15625        0.185185        0.12913861313868613        0        
C3        C        0.125        0.203703        0.12913861313868613        0        
C_FG        C        0.15625        0.148148        0.12913861313868613        0.2        
C1        C        0.125        0.24074099999999998        0.12913861313868613        0        
C_FG        C        0.15625        0.296297        0.12913861313868613        0.2        
C3        C        0.125        0.314815        0.12913861313868613        0        
C4        C        0.15625        0.259259        0.12913861313868613        0        
C1        C        0.125        0.351852        0.12913861313868613        0        
C_FG        C        0.15625        0.407408        0.12913861313868613        0.2        
C3        C        0.125        0.425925        0.12913861313868613        0        
C4        C        0.15625        0.37037        0.12913861313868613        0        
C1        C        0.125        0.46296300000000007        0.12913861313868613        0        
C2        C        0.15625        0.518519        0.12913861313868613        0        
C3        C        0.125        0.537037        0.12913861313868613        0        
C_FG        C        0.15625        0.481481        0.12913861313868613        0.2        
C1        C        0.125        0.574075        0.12913861313868613        0        
C_FG        C        0.15625        0.62963        0.12913861313868613        0.2        
C3        C        0.125        0.648148        0.12913861313868613        0        
C4        C        0.15625        0.592592        0.12913861313868613        0        
C_FG        C        0.1875        0.018519        0.12913861313868613        0.2        
C2        C        0.21875        0.074075        0.12913861313868613        0        
C_FG        C        0.1875        0.092592        0.12913861313868613        0.2        
C4        C        0.21875        0.037037        0.12913861313868613        0        
C_FG        C        0.1875        0.12963        0.12913861313868613        0.2        
C2        C        0.21875        0.185185        0.12913861313868613        0        
C_FG        C        0.1875        0.203703        0.12913861313868613        0.2        
C4        C        0.21875        0.148148        0.12913861313868613        0        
C_FG        C        0.1875        0.24074099999999998        0.12913861313868613        0.2        
C2        C        0.21875        0.296297        0.12913861313868613        0        
C_FG        C        0.1875        0.314815        0.12913861313868613        0.2        
C4        C        0.21875        0.259259        0.12913861313868613        0        
C_FG        C        0.1875        0.351852        0.12913861313868613        0.2        
C2        C        0.21875        0.407408        0.12913861313868613        0        
C3        C        0.1875        0.425925        0.12913861313868613        0        
C4        C        0.21875        0.37037        0.12913861313868613        0        
C_FG        C        0.1875        0.46296300000000007        0.12913861313868613        0.2        
C2        C        0.21875        0.518519        0.12913861313868613        0        
C_FG        C        0.1875        0.537037        0.12913861313868613        0.2        
C4        C        0.21875        0.481481        0.12913861313868613        0        
C1        C        0.1875        0.574075        0.12913861313868613        0        
C2        C        0.21875        0.62963        0.12913861313868613        0        
C_FG        C        0.1875        0.648148        0.12913861313868613        0.2        
C4        C        0.21875        0.592592        0.12913861313868613        0        
C_FG        C        0.25        0.018519        0.12913861313868613        0.2        
C2        C        0.28125        0.074075        0.12913861313868613        0        
C_FG        C        0.25        0.092592        0.12913861313868613        0.2        
C4        C        0.28125        0.037037        0.12913861313868613        0        
C_FG        C        0.25        0.12963        0.12913861313868613        0.2        
C2        C        0.28125        0.185185        0.12913861313868613        0        
C_FG        C        0.25        0.203703        0.12913861313868613        0.2        
C4        C        0.28125        0.148148        0.12913861313868613        0        
C_FG        C        0.25        0.24074099999999998        0.12913861313868613        0.2        
C2        C        0.28125        0.296297        0.12913861313868613        0        
C_FG        C        0.25        0.314815        0.12913861313868613        0.2        
C4        C        0.28125        0.259259        0.12913861313868613        0        
C_FG        C        0.25        0.351852        0.12913861313868613        0.2        
C2        C        0.28125        0.407408        0.12913861313868613        0        
C3        C        0.25        0.425925        0.12913861313868613        0        
C4        C        0.28125        0.37037        0.12913861313868613        0        
C_FG        C        0.25        0.46296300000000007        0.12913861313868613        0.2        
C2        C        0.28125        0.518519        0.12913861313868613        0        
C_FG        C        0.25        0.537037        0.12913861313868613        0.2        
C4        C        0.28125        0.481481        0.12913861313868613        0        
C1        C        0.25        0.574075        0.12913861313868613        0        
C2        C        0.28125        0.62963        0.12913861313868613        0        
C_FG        C        0.25        0.648148        0.12913861313868613        0.2        
C4        C        0.28125        0.592592        0.12913861313868613        0        
C_FG        C        0.3125        0.018519        0.12913861313868613        0.2        
C2        C        0.34375        0.074075        0.12913861313868613        0        
C_FG        C        0.3125        0.092592        0.12913861313868613        0.2        
C4        C        0.34375        0.037037        0.12913861313868613        0        
C_FG        C        0.3125        0.12963        0.12913861313868613        0.2        
C2        C        0.34375        0.185185        0.12913861313868613        0        
C_FG        C        0.3125        0.203703        0.12913861313868613        0.2        
C4        C        0.34375        0.148148        0.12913861313868613        0        
C_FG        C        0.3125        0.24074099999999998        0.12913861313868613        0.2        
C2        C        0.34375        0.296297        0.12913861313868613        0        
C_FG        C        0.3125        0.314815        0.12913861313868613        0.2        
C4        C        0.34375        0.259259        0.12913861313868613        0        
C_FG        C        0.3125        0.351852        0.12913861313868613        0.2        
C2        C        0.34375        0.407408        0.12913861313868613        0        
C3        C        0.3125        0.425925        0.12913861313868613        0        
C4        C        0.34375        0.37037        0.12913861313868613        0        
C_FG        C        0.3125        0.46296300000000007        0.12913861313868613        0.2        
C2        C        0.34375        0.518519        0.12913861313868613        0        
C_FG        C        0.3125        0.537037        0.12913861313868613        0.2        
C4        C        0.34375        0.481481        0.12913861313868613        0        
C1        C        0.3125        0.574075        0.12913861313868613        0        
C2        C        0.34375        0.62963        0.12913861313868613        0        
C_FG        C        0.3125        0.648148        0.12913861313868613        0.2        
C4        C        0.34375        0.592592        0.12913861313868613        0        
C1        C        0.375        0.018519        0.12913861313868613        0        
C2        C        0.40625        0.074075        0.12913861313868613        0        
C3        C        0.375        0.092592        0.12913861313868613        0        
C4        C        0.40625        0.037037        0.12913861313868613        0        
C1        C        0.375        0.12963        0.12913861313868613        0        
C2        C        0.40625        0.185185        0.12913861313868613        0        
C3        C        0.375        0.203703        0.12913861313868613        0        
C4        C        0.40625        0.148148        0.12913861313868613        0        
C1        C        0.375        0.24074099999999998        0.12913861313868613        0        
C2        C        0.40625        0.296297        0.12913861313868613        0        
C3        C        0.375        0.314815        0.12913861313868613        0        
C4        C        0.40625        0.259259        0.12913861313868613        0        
C1        C        0.375        0.351852        0.12913861313868613        0        
C2        C        0.40625        0.407408        0.12913861313868613        0        
C3        C        0.375        0.425925        0.12913861313868613        0        
C4        C        0.40625        0.37037        0.12913861313868613        0        
C1        C        0.375        0.46296300000000007        0.12913861313868613        0        
C2        C        0.40625        0.518519        0.12913861313868613        0        
C3        C        0.375        0.537037        0.12913861313868613        0        
C4        C        0.40625        0.481481        0.12913861313868613        0        
C1        C        0.375        0.574075        0.12913861313868613        0        
C2        C        0.40625        0.62963        0.12913861313868613        0        
C3        C        0.375        0.648148        0.12913861313868613        0        
C4        C        0.40625        0.592592        0.12913861313868613        0        
C1        C        0.4375        0.018519        0.12913861313868613        0        
C2        C        0.46875        0.074075        0.12913861313868613        0        
C3        C        0.4375        0.092592        0.12913861313868613        0        
C4        C        0.46875        0.037037        0.12913861313868613        0        
C1        C        0.4375        0.12963        0.12913861313868613        0        
C2        C        0.46875        0.185185        0.12913861313868613        0        
C3        C        0.4375        0.203703        0.12913861313868613        0        
C4        C        0.46875        0.148148        0.12913861313868613        0        
C1        C        0.4375        0.24074099999999998        0.12913861313868613        0        
C2        C        0.46875        0.296297        0.12913861313868613        0        
C3        C        0.4375        0.314815        0.12913861313868613        0        
C4        C        0.46875        0.259259        0.12913861313868613        0        
C1        C        0.4375        0.351852        0.12913861313868613        0        
C2        C        0.46875        0.407408        0.12913861313868613        0        
C3        C        0.4375        0.425925        0.12913861313868613        0        
C4        C        0.46875        0.37037        0.12913861313868613        0        
C1        C        0.4375        0.46296300000000007        0.12913861313868613        0        
C2        C        0.46875        0.518519        0.12913861313868613        0        
C3        C        0.4375        0.537037        0.12913861313868613        0        
C4        C        0.46875        0.481481        0.12913861313868613        0        
C1        C        0.4375        0.574075        0.12913861313868613        0        
C2        C        0.46875        0.62963        0.12913861313868613        0        
C3        C        0.4375        0.648148        0.12913861313868613        0        
C4        C        0.46875        0.592592        0.12913861313868613        0        
C1        C        0.5        0.018519        0.12913861313868613        0        
C2        C        0.53125        0.074075        0.12913861313868613        0        
C3        C        0.5        0.092592        0.12913861313868613        0        
C4        C        0.53125        0.037037        0.12913861313868613        0        
C1        C        0.5        0.12963        0.12913861313868613        0        
C2        C        0.53125        0.185185        0.12913861313868613        0        
C3        C        0.5        0.203703        0.12913861313868613        0        
C4        C        0.53125        0.148148        0.12913861313868613        0        
C1        C        0.5        0.24074099999999998        0.12913861313868613        0        
C2        C        0.53125        0.296297        0.12913861313868613        0        
C3        C        0.5        0.314815        0.12913861313868613        0        
C4        C        0.53125        0.259259        0.12913861313868613        0        
C1        C        0.5        0.351852        0.12913861313868613        0        
C2        C        0.53125        0.407408        0.12913861313868613        0        
C3        C        0.5        0.425925        0.12913861313868613        0        
C4        C        0.53125        0.37037        0.12913861313868613        0        
C1        C        0.5        0.46296300000000007        0.12913861313868613        0        
C2        C        0.53125        0.518519        0.12913861313868613        0        
C3        C        0.5        0.537037        0.12913861313868613        0        
C4        C        0.53125        0.481481        0.12913861313868613        0        
C1        C        0.5        0.574075        0.12913861313868613        0        
C2        C        0.53125        0.62963        0.12913861313868613        0        
C3        C        0.5        0.648148        0.12913861313868613        0        
C4        C        0.53125        0.592592        0.12913861313868613        0        
C1        C        0.5625        0.018519        0.12913861313868613        0        
C2        C        0.59375        0.074075        0.12913861313868613        0        
C3        C        0.5625        0.092592        0.12913861313868613        0        
C4        C        0.59375        0.037037        0.12913861313868613        0        
C1        C        0.5625        0.12963        0.12913861313868613        0        
C2        C        0.59375        0.185185        0.12913861313868613        0        
C3        C        0.5625        0.203703        0.12913861313868613        0        
C4        C        0.59375        0.148148        0.12913861313868613        0        
C1        C        0.5625        0.24074099999999998        0.12913861313868613        0        
C2        C        0.59375        0.296297        0.12913861313868613        0        
C3        C        0.5625        0.314815        0.12913861313868613        0        
C4        C        0.59375        0.259259        0.12913861313868613        0        
C1        C        0.5625        0.351852        0.12913861313868613        0        
C2        C        0.59375        0.407408        0.12913861313868613        0        
C3        C        0.5625        0.425925        0.12913861313868613        0        
C4        C        0.59375        0.37037        0.12913861313868613        0        
C1        C        0.5625        0.46296300000000007        0.12913861313868613        0        
C2        C        0.59375        0.518519        0.12913861313868613        0        
C3        C        0.5625        0.537037        0.12913861313868613        0        
C4        C        0.59375        0.481481        0.12913861313868613        0        
C1        C        0.5625        0.574075        0.12913861313868613        0        
C2        C        0.59375        0.62963        0.12913861313868613        0        
C3        C        0.5625        0.648148        0.12913861313868613        0        
C4        C        0.59375        0.592592        0.12913861313868613        0        
C1        C        0.625        0.018519        0.12913861313868613        0        
C2        C        0.65625        0.074075        0.12913861313868613        0        
C3        C        0.625        0.092592        0.12913861313868613        0        
C4        C        0.65625        0.037037        0.12913861313868613        0        
C1        C        0.625        0.12963        0.12913861313868613        0        
C2        C        0.65625        0.185185        0.12913861313868613        0        
C3        C        0.625        0.203703        0.12913861313868613        0        
C4        C        0.65625        0.148148        0.12913861313868613        0        
C1        C        0.625        0.24074099999999998        0.12913861313868613        0        
C2        C        0.65625        0.296297        0.12913861313868613        0        
C3        C        0.625        0.314815        0.12913861313868613        0        
C4        C        0.65625        0.259259        0.12913861313868613        0        
C1        C        0.625        0.351852        0.12913861313868613        0        
C2        C        0.65625        0.407408        0.12913861313868613        0        
C3        C        0.625        0.425925        0.12913861313868613        0        
C4        C        0.65625        0.37037        0.12913861313868613        0        
C1        C        0.625        0.46296300000000007        0.12913861313868613        0        
C2        C        0.65625        0.518519        0.12913861313868613        0        
C3        C        0.625        0.537037        0.12913861313868613        0        
C4        C        0.65625        0.481481        0.12913861313868613        0        
C1        C        0.625        0.574075        0.12913861313868613        0        
C2        C        0.65625        0.62963        0.12913861313868613        0        
C3        C        0.625        0.648148        0.12913861313868613        0        
C4        C        0.65625        0.592592        0.12913861313868613        0        
C_FG        C        0.6875        0.018519        0.12913861313868613        0.2        
C_FG        C        0.71875        0.074075        0.12913861313868613        0.2        
C_FG        C        0.6875        0.092592        0.12913861313868613        0.2        
C4        C        0.71875        0.037037        0.12913861313868613        0        
C_FG        C        0.6875        0.12963        0.12913861313868613        0.2        
C2        C        0.71875        0.185185        0.12913861313868613        0        
C_FG        C        0.6875        0.203703        0.12913861313868613        0.2        
C_FG        C        0.71875        0.148148        0.12913861313868613        0.2        
C_FG        C        0.6875        0.24074099999999998        0.12913861313868613        0.2        
C_FG        C        0.71875        0.296297        0.12913861313868613        0.2        
C_FG        C        0.6875        0.314815        0.12913861313868613        0.2        
C4        C        0.71875        0.259259        0.12913861313868613        0        
C_FG        C        0.6875        0.351852        0.12913861313868613        0.2        
C_FG        C        0.71875        0.407408        0.12913861313868613        0.2        
C3        C        0.6875        0.425925        0.12913861313868613        0        
C4        C        0.71875        0.37037        0.12913861313868613        0        
C_FG        C        0.6875        0.46296300000000007        0.12913861313868613        0.2        
C2        C        0.71875        0.518519        0.12913861313868613        0        
C_FG        C        0.6875        0.537037        0.12913861313868613        0.2        
C_FG        C        0.71875        0.481481        0.12913861313868613        0.2        
C1        C        0.6875        0.574075        0.12913861313868613        0        
C_FG        C        0.71875        0.62963        0.12913861313868613        0.2        
C_FG        C        0.6875        0.648148        0.12913861313868613        0.2        
C4        C        0.71875        0.592592        0.12913861313868613        0        
C1        C        0.75        0.018519        0.12913861313868613        0        
C2        C        0.78125        0.074075        0.12913861313868613        0        
C3        C        0.75        0.092592        0.12913861313868613        0        
C4        C        0.78125        0.037037        0.12913861313868613        0        
C1        C        0.75        0.12963        0.12913861313868613        0        
C2        C        0.78125        0.185185        0.12913861313868613        0        
C3        C        0.75        0.203703        0.12913861313868613        0        
C4        C        0.78125        0.148148        0.12913861313868613        0        
C1        C        0.75        0.24074099999999998        0.12913861313868613        0        
C2        C        0.78125        0.296297        0.12913861313868613        0        
C3        C        0.75        0.314815        0.12913861313868613        0        
C4        C        0.78125        0.259259        0.12913861313868613        0        
C1        C        0.75        0.351852        0.12913861313868613        0        
C2        C        0.78125        0.407408        0.12913861313868613        0        
C3        C        0.75        0.425925        0.12913861313868613        0        
C4        C        0.78125        0.37037        0.12913861313868613        0        
C1        C        0.75        0.46296300000000007        0.12913861313868613        0        
C2        C        0.78125        0.518519        0.12913861313868613        0        
C3        C        0.75        0.537037        0.12913861313868613        0        
C4        C        0.78125        0.481481        0.12913861313868613        0        
C1        C        0.75        0.574075        0.12913861313868613        0        
C2        C        0.78125        0.62963        0.12913861313868613        0        
C3        C        0.75        0.648148        0.12913861313868613        0        
C4        C        0.78125        0.592592        0.12913861313868613        0        
C1        C        0.8125        0.018519        0.12913861313868613        0        
C_FG        C        0.84375        0.074075        0.12913861313868613        0.2        
C3        C        0.8125        0.092592        0.12913861313868613        0        
C4        C        0.84375        0.037037        0.12913861313868613        0        
C1        C        0.8125        0.12963        0.12913861313868613        0        
C2        C        0.84375        0.185185        0.12913861313868613        0        
C3        C        0.8125        0.203703        0.12913861313868613        0        
C_FG        C        0.84375        0.148148        0.12913861313868613        0.2        
C1        C        0.8125        0.24074099999999998        0.12913861313868613        0        
C_FG        C        0.84375        0.296297        0.12913861313868613        0.2        
C3        C        0.8125        0.314815        0.12913861313868613        0        
C4        C        0.84375        0.259259        0.12913861313868613        0        
C1        C        0.8125        0.351852        0.12913861313868613        0        
C_FG        C        0.84375        0.407408        0.12913861313868613        0.2        
C3        C        0.8125        0.425925        0.12913861313868613        0        
C4        C        0.84375        0.37037        0.12913861313868613        0        
C1        C        0.8125        0.46296300000000007        0.12913861313868613        0        
C2        C        0.84375        0.518519        0.12913861313868613        0        
C3        C        0.8125        0.537037        0.12913861313868613        0        
C_FG        C        0.84375        0.481481        0.12913861313868613        0.2        
C1        C        0.8125        0.574075        0.12913861313868613        0        
C_FG        C        0.84375        0.62963        0.12913861313868613        0.2        
C3        C        0.8125        0.648148        0.12913861313868613        0        
C4        C        0.84375        0.592592        0.12913861313868613        0        
C_FG        C        0.875        0.018519        0.12913861313868613        0.2        
C2        C        0.9062500000000001        0.074075        0.12913861313868613        0        
C_FG        C        0.875        0.092592        0.12913861313868613        0.2        
C4        C        0.9062500000000001        0.037037        0.12913861313868613        0        
C_FG        C        0.875        0.12963        0.12913861313868613        0.2        
C2        C        0.9062500000000001        0.185185        0.12913861313868613        0        
C_FG        C        0.875        0.203703        0.12913861313868613        0.2        
C4        C        0.9062500000000001        0.148148        0.12913861313868613        0        
C_FG        C        0.875        0.24074099999999998        0.12913861313868613        0.2        
C2        C        0.9062500000000001        0.296297        0.12913861313868613        0        
C_FG        C        0.875        0.314815        0.12913861313868613        0.2        
C4        C        0.9062500000000001        0.259259        0.12913861313868613        0        
C_FG        C        0.875        0.351852        0.12913861313868613        0.2        
C2        C        0.9062500000000001        0.407408        0.12913861313868613        0        
C3        C        0.875        0.425925        0.12913861313868613        0        
C4        C        0.9062500000000001        0.37037        0.12913861313868613        0        
C_FG        C        0.875        0.46296300000000007        0.12913861313868613        0.2        
C2        C        0.9062500000000001        0.518519        0.12913861313868613        0        
C_FG        C        0.875        0.537037        0.12913861313868613        0.2        
C4        C        0.9062500000000001        0.481481        0.12913861313868613        0        
C1        C        0.875        0.574075        0.12913861313868613        0        
C2        C        0.9062500000000001        0.62963        0.12913861313868613        0        
C_FG        C        0.875        0.648148        0.12913861313868613        0.2        
C4        C        0.9062500000000001        0.592592        0.12913861313868613        0        
C1        C        0.9375        0.018519        0.12913861313868613        0        
C2        C        0.9687500000000001        0.074075        0.12913861313868613        0        
C3        C        0.9375        0.092592        0.12913861313868613        0        
C4        C        0.9687500000000001        0.037037        0.12913861313868613        0        
C1        C        0.9375        0.12963        0.12913861313868613        0        
C2        C        0.9687500000000001        0.185185        0.12913861313868613        0        
C3        C        0.9375        0.203703        0.12913861313868613        0        
C4        C        0.9687500000000001        0.148148        0.12913861313868613        0        
C1        C        0.9375        0.24074099999999998        0.12913861313868613        0        
C2        C        0.9687500000000001        0.296297        0.12913861313868613        0        
C3        C        0.9375        0.314815        0.12913861313868613        0        
C4        C        0.9687500000000001        0.259259        0.12913861313868613        0        
C1        C        0.9375        0.351852        0.12913861313868613        0        
C2        C        0.9687500000000001        0.407408        0.12913861313868613        0        
C3        C        0.9375        0.425925        0.12913861313868613        0        
C4        C        0.9687500000000001        0.37037        0.12913861313868613        0        
C1        C        0.9375        0.46296300000000007        0.12913861313868613        0        
C2        C        0.9687500000000001        0.518519        0.12913861313868613        0        
C3        C        0.9375        0.537037        0.12913861313868613        0        
C4        C        0.9687500000000001        0.481481        0.12913861313868613        0        
C1        C        0.9375        0.574075        0.12913861313868613        0        
C2        C        0.9687500000000001        0.62963        0.12913861313868613        0        
C3        C        0.9375        0.648148        0.12913861313868613        0        
C4        C        0.9687500000000001        0.592592        0.12913861313868613        0        
C1        C        0.0        0.685186        0.12913861313868613        0        
C1        C        0.0625        0.685186        0.12913861313868613        0        
C1        C        0.125        0.685186        0.12913861313868613        0        
C_FG        C        0.1875        0.685186        0.12913861313868613        0.2        
C_FG        C        0.25        0.685186        0.12913861313868613        0.2        
C_FG        C        0.3125        0.685186        0.12913861313868613        0.2        
C1        C        0.375        0.685186        0.12913861313868613        0        
C1        C        0.4375        0.685186        0.12913861313868613        0        
C1        C        0.5        0.685186        0.12913861313868613        0        
C1        C        0.5625        0.685186        0.12913861313868613        0        
C1        C        0.625        0.685186        0.12913861313868613        0        
C_FG        C        0.6875        0.685186        0.12913861313868613        0.2        
C1        C        0.75        0.685186        0.12913861313868613        0        
C1        C        0.8125        0.685186        0.12913861313868613        0        
C_FG        C        0.875        0.685186        0.12913861313868613        0.2        
C1        C        0.9375        0.685186        0.12913861313868613        0        
C_FG        C        0.03125        0.740741        0.12913861313868613        0.2        
C2        C        0.09375        0.740741        0.12913861313868613        0        
C_FG        C        0.15625        0.740741        0.12913861313868613        0.2        
C2        C        0.21875        0.740741        0.12913861313868613        0        
C2        C        0.28125        0.740741        0.12913861313868613        0        
C2        C        0.34375        0.740741        0.12913861313868613        0        
C2        C        0.40625        0.740741        0.12913861313868613        0        
C2        C        0.46875        0.740741        0.12913861313868613        0        
C2        C        0.53125        0.740741        0.12913861313868613        0        
C2        C        0.59375        0.740741        0.12913861313868613        0        
C2        C        0.65625        0.740741        0.12913861313868613        0        
C_FG        C        0.71875        0.740741        0.12913861313868613        0.2        
C2        C        0.78125        0.740741        0.12913861313868613        0        
C_FG        C        0.84375        0.740741        0.12913861313868613        0.2        
C2        C        0.9062500000000001        0.740741        0.12913861313868613        0        
C2        C        0.9687500000000001        0.740741        0.12913861313868613        0        
C3        C        0.0        0.759259        0.12913861313868613        0        
C3        C        0.0625        0.759259        0.12913861313868613        0        
C3        C        0.125        0.759259        0.12913861313868613        0        
C_FG        C        0.1875        0.759259        0.12913861313868613        0.2        
C_FG        C        0.25        0.759259        0.12913861313868613        0.2        
C_FG        C        0.3125        0.759259        0.12913861313868613        0.2        
C3        C        0.375        0.759259        0.12913861313868613        0        
C3        C        0.4375        0.759259        0.12913861313868613        0        
C3        C        0.5        0.759259        0.12913861313868613        0        
C3        C        0.5625        0.759259        0.12913861313868613        0        
C3        C        0.625        0.759259        0.12913861313868613        0        
C_FG        C        0.6875        0.759259        0.12913861313868613        0.2        
C3        C        0.75        0.759259        0.12913861313868613        0        
C3        C        0.8125        0.759259        0.12913861313868613        0        
C_FG        C        0.875        0.759259        0.12913861313868613        0.2        
C3        C        0.9375        0.759259        0.12913861313868613        0        
C_FG        C        0.03125        0.703703        0.12913861313868613        0.2        
C4        C        0.09375        0.703703        0.12913861313868613        0        
C_FG        C        0.15625        0.703703        0.12913861313868613        0.2        
C4        C        0.21875        0.703703        0.12913861313868613        0        
C4        C        0.28125        0.703703        0.12913861313868613        0        
C4        C        0.34375        0.703703        0.12913861313868613        0        
C4        C        0.40625        0.703703        0.12913861313868613        0        
C4        C        0.46875        0.703703        0.12913861313868613        0        
C4        C        0.53125        0.703703        0.12913861313868613        0        
C4        C        0.59375        0.703703        0.12913861313868613        0        
C4        C        0.65625        0.703703        0.12913861313868613        0        
C_FG        C        0.71875        0.703703        0.12913861313868613        0.2        
C4        C        0.78125        0.703703        0.12913861313868613        0        
C_FG        C        0.84375        0.703703        0.12913861313868613        0.2        
C4        C        0.9062500000000001        0.703703        0.12913861313868613        0        
C4        C        0.9687500000000001        0.703703        0.12913861313868613        0        
C1        C        0.0        0.796297        0.12913861313868613        0        
C1        C        0.0625        0.796297        0.12913861313868613        0        
C1        C        0.125        0.796297        0.12913861313868613        0        
C_FG        C        0.1875        0.796297        0.12913861313868613        0.2        
C_FG        C        0.25        0.796297        0.12913861313868613        0.2        
C_FG        C        0.3125        0.796297        0.12913861313868613        0.2        
C1        C        0.375        0.796297        0.12913861313868613        0        
C1        C        0.4375        0.796297        0.12913861313868613        0        
C1        C        0.5        0.796297        0.12913861313868613        0        
C1        C        0.5625        0.796297        0.12913861313868613        0        
C1        C        0.625        0.796297        0.12913861313868613        0        
C_FG        C        0.6875        0.796297        0.12913861313868613        0.2        
C1        C        0.75        0.796297        0.12913861313868613        0        
C1        C        0.8125        0.796297        0.12913861313868613        0        
C_FG        C        0.875        0.796297        0.12913861313868613        0.2        
C1        C        0.9375        0.796297        0.12913861313868613        0        
C_FG        C        0.03125        0.851852        0.12913861313868613        0.2        
C2        C        0.09375        0.851852        0.12913861313868613        0        
C_FG        C        0.15625        0.851852        0.12913861313868613        0.2        
C2        C        0.21875        0.851852        0.12913861313868613        0        
C2        C        0.28125        0.851852        0.12913861313868613        0        
C2        C        0.34375        0.851852        0.12913861313868613        0        
C2        C        0.40625        0.851852        0.12913861313868613        0        
C2        C        0.46875        0.851852        0.12913861313868613        0        
C2        C        0.53125        0.851852        0.12913861313868613        0        
C2        C        0.59375        0.851852        0.12913861313868613        0        
C2        C        0.65625        0.851852        0.12913861313868613        0        
C_FG        C        0.71875        0.851852        0.12913861313868613        0.2        
C2        C        0.78125        0.851852        0.12913861313868613        0        
C_FG        C        0.84375        0.851852        0.12913861313868613        0.2        
C2        C        0.9062500000000001        0.851852        0.12913861313868613        0        
C2        C        0.9687500000000001        0.851852        0.12913861313868613        0        
C3        C        0.0        0.87037        0.12913861313868613        0        
C3        C        0.0625        0.87037        0.12913861313868613        0        
C3        C        0.125        0.87037        0.12913861313868613        0        
C_FG        C        0.1875        0.87037        0.12913861313868613        0.2        
C_FG        C        0.25        0.87037        0.12913861313868613        0.2        
C_FG        C        0.3125        0.87037        0.12913861313868613        0.2        
C3        C        0.375        0.87037        0.12913861313868613        0        
C3        C        0.4375        0.87037        0.12913861313868613        0        
C3        C        0.5        0.87037        0.12913861313868613        0        
C3        C        0.5625        0.87037        0.12913861313868613        0        
C3        C        0.625        0.87037        0.12913861313868613        0        
C_FG        C        0.6875        0.87037        0.12913861313868613        0.2        
C3        C        0.75        0.87037        0.12913861313868613        0        
C3        C        0.8125        0.87037        0.12913861313868613        0        
C_FG        C        0.875        0.87037        0.12913861313868613        0.2        
C3        C        0.9375        0.87037        0.12913861313868613        0        
C_FG        C        0.03125        0.814814        0.12913861313868613        0.2        
C4        C        0.09375        0.814814        0.12913861313868613        0        
C_FG        C        0.15625        0.814814        0.12913861313868613        0.2        
C4        C        0.21875        0.814814        0.12913861313868613        0        
C4        C        0.28125        0.814814        0.12913861313868613        0        
C4        C        0.34375        0.814814        0.12913861313868613        0        
C4        C        0.40625        0.814814        0.12913861313868613        0        
C4        C        0.46875        0.814814        0.12913861313868613        0        
C4        C        0.53125        0.814814        0.12913861313868613        0        
C4        C        0.59375        0.814814        0.12913861313868613        0        
C4        C        0.65625        0.814814        0.12913861313868613        0        
C_FG        C        0.71875        0.814814        0.12913861313868613        0.2        
C4        C        0.78125        0.814814        0.12913861313868613        0        
C_FG        C        0.84375        0.814814        0.12913861313868613        0.2        
C4        C        0.9062500000000001        0.814814        0.12913861313868613        0        
C4        C        0.9687500000000001        0.814814        0.12913861313868613        0        
C1        C        0.0        0.907408        0.12913861313868613        0        
C1        C        0.0625        0.907408        0.12913861313868613        0        
C1        C        0.125        0.907408        0.12913861313868613        0        
C_FG        C        0.1875        0.907408        0.12913861313868613        0.2        
C_FG        C        0.25        0.907408        0.12913861313868613        0.2        
C_FG        C        0.3125        0.907408        0.12913861313868613        0.2        
C1        C        0.375        0.907408        0.12913861313868613        0        
C1        C        0.4375        0.907408        0.12913861313868613        0        
C1        C        0.5        0.907408        0.12913861313868613        0        
C1        C        0.5625        0.907408        0.12913861313868613        0        
C1        C        0.625        0.907408        0.12913861313868613        0        
C_FG        C        0.6875        0.907408        0.12913861313868613        0.2        
C1        C        0.75        0.907408        0.12913861313868613        0        
C1        C        0.8125        0.907408        0.12913861313868613        0        
C_FG        C        0.875        0.907408        0.12913861313868613        0.2        
C1        C        0.9375        0.907408        0.12913861313868613        0        
C_FG        C        0.03125        0.962963        0.12913861313868613        0.2        
C2        C        0.09375        0.962963        0.12913861313868613        0        
C_FG        C        0.15625        0.962963        0.12913861313868613        0.2        
C2        C        0.21875        0.962963        0.12913861313868613        0        
C2        C        0.28125        0.962963        0.12913861313868613        0        
C2        C        0.34375        0.962963        0.12913861313868613        0        
C2        C        0.40625        0.962963        0.12913861313868613        0        
C2        C        0.46875        0.962963        0.12913861313868613        0        
C2        C        0.53125        0.962963        0.12913861313868613        0        
C2        C        0.59375        0.962963        0.12913861313868613        0        
C2        C        0.65625        0.962963        0.12913861313868613        0        
C_FG        C        0.71875        0.962963        0.12913861313868613        0.2        
C2        C        0.78125        0.962963        0.12913861313868613        0        
C_FG        C        0.84375        0.962963        0.12913861313868613        0.2        
C2        C        0.9062500000000001        0.962963        0.12913861313868613        0        
C2        C        0.9687500000000001        0.962963        0.12913861313868613        0        
C3        C        0.0        0.9814809999999999        0.12913861313868613        0        
C3        C        0.0625        0.9814809999999999        0.12913861313868613        0        
C3        C        0.125        0.9814809999999999        0.12913861313868613        0        
C3        C        0.1875        0.9814809999999999        0.12913861313868613        0        
C3        C        0.25        0.9814809999999999        0.12913861313868613        0        
C3        C        0.3125        0.9814809999999999        0.12913861313868613        0        
C3        C        0.375        0.9814809999999999        0.12913861313868613        0        
C3        C        0.4375        0.9814809999999999        0.12913861313868613        0        
C3        C        0.5        0.9814809999999999        0.12913861313868613        0        
C3        C        0.5625        0.9814809999999999        0.12913861313868613        0        
C3        C        0.625        0.9814809999999999        0.12913861313868613        0        
C3        C        0.6875        0.9814809999999999        0.12913861313868613        0        
C3        C        0.75        0.9814809999999999        0.12913861313868613        0        
C3        C        0.8125        0.9814809999999999        0.12913861313868613        0        
C3        C        0.875        0.9814809999999999        0.12913861313868613        0        
C3        C        0.9375        0.9814809999999999        0.12913861313868613        0        
C_FG        C        0.03125        0.925925        0.12913861313868613        0.2        
C4        C        0.09375        0.925925        0.12913861313868613        0        
C_FG        C        0.15625        0.925925        0.12913861313868613        0.2        
C4        C        0.21875        0.925925        0.12913861313868613        0        
C4        C        0.28125        0.925925        0.12913861313868613        0        
C4        C        0.34375        0.925925        0.12913861313868613        0        
C4        C        0.40625        0.925925        0.12913861313868613        0        
C4        C        0.46875        0.925925        0.12913861313868613        0        
C4        C        0.53125        0.925925        0.12913861313868613        0        
C4        C        0.59375        0.925925        0.12913861313868613        0        
C4        C        0.65625        0.925925        0.12913861313868613        0        
C_FG        C        0.71875        0.925925        0.12913861313868613        0.2        
C4        C        0.78125        0.925925        0.12913861313868613        0        
C_FG        C        0.84375        0.925925        0.12913861313868613        0.2        
C4        C        0.9062500000000001        0.925925        0.12913861313868613        0        
C4        C        0.9687500000000001        0.925925        0.12913861313868613        0        
C1        C        0.0        0.018519        0.3736641605839415        0        
C2        C        0.03125        0.074075        0.3736641605839415        0        
C3        C        0.0        0.092592        0.3736641605839415        0        
C4        C        0.03125        0.037037        0.3736641605839415        0        
C1        C        0.0        0.12963        0.3736641605839415        0        
C2        C        0.03125        0.185185        0.3736641605839415        0        
C3        C        0.0        0.203703        0.3736641605839415        0        
C4        C        0.03125        0.148148        0.3736641605839415        0        
C1        C        0.0        0.24074099999999998        0.3736641605839415        0        
C2        C        0.03125        0.296297        0.3736641605839415        0        
C3        C        0.0        0.314815        0.3736641605839415        0        
C4        C        0.03125        0.259259        0.3736641605839415        0        
C1        C        0.0        0.351852        0.3736641605839415        0        
C2        C        0.03125        0.407408        0.3736641605839415        0        
C3        C        0.0        0.425925        0.3736641605839415        0        
C4        C        0.03125        0.37037        0.3736641605839415        0        
C1        C        0.0        0.46296300000000007        0.3736641605839415        0        
C2        C        0.03125        0.518519        0.3736641605839415        0        
C3        C        0.0        0.537037        0.3736641605839415        0        
C4        C        0.03125        0.481481        0.3736641605839415        0        
C1        C        0.0        0.574075        0.3736641605839415        0        
C2        C        0.03125        0.62963        0.3736641605839415        0        
C3        C        0.0        0.648148        0.3736641605839415        0        
C4        C        0.03125        0.592592        0.3736641605839415        0        
C1        C        0.0625        0.018519        0.3736641605839415        0        
C2        C        0.09375        0.074075        0.3736641605839415        0        
C3        C        0.0625        0.092592        0.3736641605839415        0        
C4        C        0.09375        0.037037        0.3736641605839415        0        
C1        C        0.0625        0.12963        0.3736641605839415        0        
C2        C        0.09375        0.185185        0.3736641605839415        0        
C3        C        0.0625        0.203703        0.3736641605839415        0        
C4        C        0.09375        0.148148        0.3736641605839415        0        
C1        C        0.0625        0.24074099999999998        0.3736641605839415        0        
C2        C        0.09375        0.296297        0.3736641605839415        0        
C3        C        0.0625        0.314815        0.3736641605839415        0        
C4        C        0.09375        0.259259        0.3736641605839415        0        
C1        C        0.0625        0.351852        0.3736641605839415        0        
C2        C        0.09375        0.407408        0.3736641605839415        0        
C3        C        0.0625        0.425925        0.3736641605839415        0        
C4        C        0.09375        0.37037        0.3736641605839415        0        
C1        C        0.0625        0.46296300000000007        0.3736641605839415        0        
C2        C        0.09375        0.518519        0.3736641605839415        0        
C3        C        0.0625        0.537037        0.3736641605839415        0        
C4        C        0.09375        0.481481        0.3736641605839415        0        
C1        C        0.0625        0.574075        0.3736641605839415        0        
C2        C        0.09375        0.62963        0.3736641605839415        0        
C3        C        0.0625        0.648148        0.3736641605839415        0        
C4        C        0.09375        0.592592        0.3736641605839415        0        
C1        C        0.125        0.018519        0.3736641605839415        0        
C2        C        0.15625        0.074075        0.3736641605839415        0        
C3        C        0.125        0.092592        0.3736641605839415        0        
C4        C        0.15625        0.037037        0.3736641605839415        0        
C1        C        0.125        0.12963        0.3736641605839415        0        
C2        C        0.15625        0.185185        0.3736641605839415        0        
C3        C        0.125        0.203703        0.3736641605839415        0        
C4        C        0.15625        0.148148        0.3736641605839415        0        
C1        C        0.125        0.24074099999999998        0.3736641605839415        0        
C2        C        0.15625        0.296297        0.3736641605839415        0        
C3        C        0.125        0.314815        0.3736641605839415        0        
C4        C        0.15625        0.259259        0.3736641605839415        0        
C1        C        0.125        0.351852        0.3736641605839415        0        
C2        C        0.15625        0.407408        0.3736641605839415        0        
C3        C        0.125        0.425925        0.3736641605839415        0        
C4        C        0.15625        0.37037        0.3736641605839415        0        
C1        C        0.125        0.46296300000000007        0.3736641605839415        0        
C2        C        0.15625        0.518519        0.3736641605839415        0        
C3        C        0.125        0.537037        0.3736641605839415        0        
C4        C        0.15625        0.481481        0.3736641605839415        0        
C1        C        0.125        0.574075        0.3736641605839415        0        
C2        C        0.15625        0.62963        0.3736641605839415        0        
C3        C        0.125        0.648148        0.3736641605839415        0        
C4        C        0.15625        0.592592        0.3736641605839415        0        
C1        C        0.1875        0.018519        0.3736641605839415        0        
C2        C        0.21875        0.074075        0.3736641605839415        0        
C3        C        0.1875        0.092592        0.3736641605839415        0        
C4        C        0.21875        0.037037        0.3736641605839415        0        
C1        C        0.1875        0.12963        0.3736641605839415        0        
C2        C        0.21875        0.185185        0.3736641605839415        0        
C3        C        0.1875        0.203703        0.3736641605839415        0        
C4        C        0.21875        0.148148        0.3736641605839415        0        
C1        C        0.1875        0.24074099999999998        0.3736641605839415        0        
C2        C        0.21875        0.296297        0.3736641605839415        0        
C3        C        0.1875        0.314815        0.3736641605839415        0        
C4        C        0.21875        0.259259        0.3736641605839415        0        
C1        C        0.1875        0.351852        0.3736641605839415        0        
C2        C        0.21875        0.407408        0.3736641605839415        0        
C3        C        0.1875        0.425925        0.3736641605839415        0        
C4        C        0.21875        0.37037        0.3736641605839415        0        
C1        C        0.1875        0.46296300000000007        0.3736641605839415        0        
C2        C        0.21875        0.518519        0.3736641605839415        0        
C3        C        0.1875        0.537037        0.3736641605839415        0        
C4        C        0.21875        0.481481        0.3736641605839415        0        
C1        C        0.1875        0.574075        0.3736641605839415        0        
C2        C        0.21875        0.62963        0.3736641605839415        0        
C3        C        0.1875        0.648148        0.3736641605839415        0        
C4        C        0.21875        0.592592        0.3736641605839415        0        
C1        C        0.25        0.018519        0.3736641605839415        0        
C2        C        0.28125        0.074075        0.3736641605839415        0        
C3        C        0.25        0.092592        0.3736641605839415        0        
C4        C        0.28125        0.037037        0.3736641605839415        0        
C1        C        0.25        0.12963        0.3736641605839415        0        
C2        C        0.28125        0.185185        0.3736641605839415        0        
C3        C        0.25        0.203703        0.3736641605839415        0        
C4        C        0.28125        0.148148        0.3736641605839415        0        
C1        C        0.25        0.24074099999999998        0.3736641605839415        0        
C2        C        0.28125        0.296297        0.3736641605839415        0        
C3        C        0.25        0.314815        0.3736641605839415        0        
C4        C        0.28125        0.259259        0.3736641605839415        0        
C1        C        0.25        0.351852        0.3736641605839415        0        
C2        C        0.28125        0.407408        0.3736641605839415        0        
C3        C        0.25        0.425925        0.3736641605839415        0        
C4        C        0.28125        0.37037        0.3736641605839415        0        
C1        C        0.25        0.46296300000000007        0.3736641605839415        0        
C2        C        0.28125        0.518519        0.3736641605839415        0        
C3        C        0.25        0.537037        0.3736641605839415        0        
C4        C        0.28125        0.481481        0.3736641605839415        0        
C1        C        0.25        0.574075        0.3736641605839415        0        
C2        C        0.28125        0.62963        0.3736641605839415        0        
C3        C        0.25        0.648148        0.3736641605839415        0        
C4        C        0.28125        0.592592        0.3736641605839415        0        
C1        C        0.3125        0.018519        0.3736641605839415        0        
C2        C        0.34375        0.074075        0.3736641605839415        0        
C3        C        0.3125        0.092592        0.3736641605839415        0        
C4        C        0.34375        0.037037        0.3736641605839415        0        
C1        C        0.3125        0.12963        0.3736641605839415        0        
C2        C        0.34375        0.185185        0.3736641605839415        0        
C3        C        0.3125        0.203703        0.3736641605839415        0        
C4        C        0.34375        0.148148        0.3736641605839415        0        
C1        C        0.3125        0.24074099999999998        0.3736641605839415        0        
C2        C        0.34375        0.296297        0.3736641605839415        0        
C3        C        0.3125        0.314815        0.3736641605839415        0        
C4        C        0.34375        0.259259        0.3736641605839415        0        
C1        C        0.3125        0.351852        0.3736641605839415        0        
C2        C        0.34375        0.407408        0.3736641605839415        0        
C3        C        0.3125        0.425925        0.3736641605839415        0        
C4        C        0.34375        0.37037        0.3736641605839415        0        
C1        C        0.3125        0.46296300000000007        0.3736641605839415        0        
C2        C        0.34375        0.518519        0.3736641605839415        0        
C3        C        0.3125        0.537037        0.3736641605839415        0        
C4        C        0.34375        0.481481        0.3736641605839415        0        
C1        C        0.3125        0.574075        0.3736641605839415        0        
C2        C        0.34375        0.62963        0.3736641605839415        0        
C3        C        0.3125        0.648148        0.3736641605839415        0        
C4        C        0.34375        0.592592        0.3736641605839415        0        
C1        C        0.375        0.018519        0.3736641605839415        0        
C2        C        0.40625        0.074075        0.3736641605839415        0        
C3        C        0.375        0.092592        0.3736641605839415        0        
C4        C        0.40625        0.037037        0.3736641605839415        0        
C1        C        0.375        0.12963        0.3736641605839415        0        
C2        C        0.40625        0.185185        0.3736641605839415        0        
C3        C        0.375        0.203703        0.3736641605839415        0        
C4        C        0.40625        0.148148        0.3736641605839415        0        
C1        C        0.375        0.24074099999999998        0.3736641605839415        0        
C2        C        0.40625        0.296297        0.3736641605839415        0        
C3        C        0.375        0.314815        0.3736641605839415        0        
C4        C        0.40625        0.259259        0.3736641605839415        0        
C1        C        0.375        0.351852        0.3736641605839415        0        
C2        C        0.40625        0.407408        0.3736641605839415        0        
C3        C        0.375        0.425925        0.3736641605839415        0        
C4        C        0.40625        0.37037        0.3736641605839415        0        
C1        C        0.375        0.46296300000000007        0.3736641605839415        0        
C2        C        0.40625        0.518519        0.3736641605839415        0        
C3        C        0.375        0.537037        0.3736641605839415        0        
C4        C        0.40625        0.481481        0.3736641605839415        0        
C1        C        0.375        0.574075        0.3736641605839415        0        
C2        C        0.40625        0.62963        0.3736641605839415        0        
C3        C        0.375        0.648148        0.3736641605839415        0        
C4        C        0.40625        0.592592        0.3736641605839415        0        
C1        C        0.4375        0.018519        0.3736641605839415        0        
C2        C        0.46875        0.074075        0.3736641605839415        0        
C3        C        0.4375        0.092592        0.3736641605839415        0        
C4        C        0.46875        0.037037        0.3736641605839415        0        
C1        C        0.4375        0.12963        0.3736641605839415        0        
C2        C        0.46875        0.185185        0.3736641605839415        0        
C3        C        0.4375        0.203703        0.3736641605839415        0        
C4        C        0.46875        0.148148        0.3736641605839415        0        
C1        C        0.4375        0.24074099999999998        0.3736641605839415        0        
C2        C        0.46875        0.296297        0.3736641605839415        0        
C3        C        0.4375        0.314815        0.3736641605839415        0        
C4        C        0.46875        0.259259        0.3736641605839415        0        
C1        C        0.4375        0.351852        0.3736641605839415        0        
C2        C        0.46875        0.407408        0.3736641605839415        0        
C3        C        0.4375        0.425925        0.3736641605839415        0        
C4        C        0.46875        0.37037        0.3736641605839415        0        
C1        C        0.4375        0.46296300000000007        0.3736641605839415        0        
C2        C        0.46875        0.518519        0.3736641605839415        0        
C3        C        0.4375        0.537037        0.3736641605839415        0        
C4        C        0.46875        0.481481        0.3736641605839415        0        
C1        C        0.4375        0.574075        0.3736641605839415        0        
C2        C        0.46875        0.62963        0.3736641605839415        0        
C3        C        0.4375        0.648148        0.3736641605839415        0        
C4        C        0.46875        0.592592        0.3736641605839415        0        
C1        C        0.5        0.018519        0.3736641605839415        0        
C2        C        0.53125        0.074075        0.3736641605839415        0        
C3        C        0.5        0.092592        0.3736641605839415        0        
C4        C        0.53125        0.037037        0.3736641605839415        0        
C1        C        0.5        0.12963        0.3736641605839415        0        
C2        C        0.53125        0.185185        0.3736641605839415        0        
C3        C        0.5        0.203703        0.3736641605839415        0        
C4        C        0.53125        0.148148        0.3736641605839415        0        
C1        C        0.5        0.24074099999999998        0.3736641605839415        0        
C2        C        0.53125        0.296297        0.3736641605839415        0        
C3        C        0.5        0.314815        0.3736641605839415        0        
C4        C        0.53125        0.259259        0.3736641605839415        0        
C1        C        0.5        0.351852        0.3736641605839415        0        
C2        C        0.53125        0.407408        0.3736641605839415        0        
C3        C        0.5        0.425925        0.3736641605839415        0        
C4        C        0.53125        0.37037        0.3736641605839415        0        
C1        C        0.5        0.46296300000000007        0.3736641605839415        0        
C2        C        0.53125        0.518519        0.3736641605839415        0        
C3        C        0.5        0.537037        0.3736641605839415        0        
C4        C        0.53125        0.481481        0.3736641605839415        0        
C1        C        0.5        0.574075        0.3736641605839415        0        
C2        C        0.53125        0.62963        0.3736641605839415        0        
C3        C        0.5        0.648148        0.3736641605839415        0        
C4        C        0.53125        0.592592        0.3736641605839415        0        
C1        C        0.5625        0.018519        0.3736641605839415        0        
C2        C        0.59375        0.074075        0.3736641605839415        0        
C3        C        0.5625        0.092592        0.3736641605839415        0        
C4        C        0.59375        0.037037        0.3736641605839415        0        
C1        C        0.5625        0.12963        0.3736641605839415        0        
C2        C        0.59375        0.185185        0.3736641605839415        0        
C3        C        0.5625        0.203703        0.3736641605839415        0        
C4        C        0.59375        0.148148        0.3736641605839415        0        
C1        C        0.5625        0.24074099999999998        0.3736641605839415        0        
C2        C        0.59375        0.296297        0.3736641605839415        0        
C3        C        0.5625        0.314815        0.3736641605839415        0        
C4        C        0.59375        0.259259        0.3736641605839415        0        
C1        C        0.5625        0.351852        0.3736641605839415        0        
C2        C        0.59375        0.407408        0.3736641605839415        0        
C3        C        0.5625        0.425925        0.3736641605839415        0        
C4        C        0.59375        0.37037        0.3736641605839415        0        
C1        C        0.5625        0.46296300000000007        0.3736641605839415        0        
C2        C        0.59375        0.518519        0.3736641605839415        0        
C3        C        0.5625        0.537037        0.3736641605839415        0        
C4        C        0.59375        0.481481        0.3736641605839415        0        
C1        C        0.5625        0.574075        0.3736641605839415        0        
C2        C        0.59375        0.62963        0.3736641605839415        0        
C3        C        0.5625        0.648148        0.3736641605839415        0        
C4        C        0.59375        0.592592        0.3736641605839415        0        
C1        C        0.625        0.018519        0.3736641605839415        0        
C2        C        0.65625        0.074075        0.3736641605839415        0        
C3        C        0.625        0.092592        0.3736641605839415        0        
C4        C        0.65625        0.037037        0.3736641605839415        0        
C1        C        0.625        0.12963        0.3736641605839415        0        
C2        C        0.65625        0.185185        0.3736641605839415        0        
C3        C        0.625        0.203703        0.3736641605839415        0        
C4        C        0.65625        0.148148        0.3736641605839415        0        
C1        C        0.625        0.24074099999999998        0.3736641605839415        0        
C2        C        0.65625        0.296297        0.3736641605839415        0        
C3        C        0.625        0.314815        0.3736641605839415        0        
C4        C        0.65625        0.259259        0.3736641605839415        0        
C1        C        0.625        0.351852        0.3736641605839415        0        
C2        C        0.65625        0.407408        0.3736641605839415        0        
C3        C        0.625        0.425925        0.3736641605839415        0        
C4        C        0.65625        0.37037        0.3736641605839415        0        
C1        C        0.625        0.46296300000000007        0.3736641605839415        0        
C2        C        0.65625        0.518519        0.3736641605839415        0        
C3        C        0.625        0.537037        0.3736641605839415        0        
C4        C        0.65625        0.481481        0.3736641605839415        0        
C1        C        0.625        0.574075        0.3736641605839415        0        
C2        C        0.65625        0.62963        0.3736641605839415        0        
C3        C        0.625        0.648148        0.3736641605839415        0        
C4        C        0.65625        0.592592        0.3736641605839415        0        
C1        C        0.6875        0.018519        0.3736641605839415        0        
C2        C        0.71875        0.074075        0.3736641605839415        0        
C3        C        0.6875        0.092592        0.3736641605839415        0        
C4        C        0.71875        0.037037        0.3736641605839415        0        
C1        C        0.6875        0.12963        0.3736641605839415        0        
C2        C        0.71875        0.185185        0.3736641605839415        0        
C3        C        0.6875        0.203703        0.3736641605839415        0        
C4        C        0.71875        0.148148        0.3736641605839415        0        
C1        C        0.6875        0.24074099999999998        0.3736641605839415        0        
C2        C        0.71875        0.296297        0.3736641605839415        0        
C3        C        0.6875        0.314815        0.3736641605839415        0        
C4        C        0.71875        0.259259        0.3736641605839415        0        
C1        C        0.6875        0.351852        0.3736641605839415        0        
C2        C        0.71875        0.407408        0.3736641605839415        0        
C3        C        0.6875        0.425925        0.3736641605839415        0        
C4        C        0.71875        0.37037        0.3736641605839415        0        
C1        C        0.6875        0.46296300000000007        0.3736641605839415        0        
C2        C        0.71875        0.518519        0.3736641605839415        0        
C3        C        0.6875        0.537037        0.3736641605839415        0        
C4        C        0.71875        0.481481        0.3736641605839415        0        
C1        C        0.6875        0.574075        0.3736641605839415        0        
C2        C        0.71875        0.62963        0.3736641605839415        0        
C3        C        0.6875        0.648148        0.3736641605839415        0        
C4        C        0.71875        0.592592        0.3736641605839415        0        
C1        C        0.75        0.018519        0.3736641605839415        0        
C2        C        0.78125        0.074075        0.3736641605839415        0        
C3        C        0.75        0.092592        0.3736641605839415        0        
C4        C        0.78125        0.037037        0.3736641605839415        0        
C1        C        0.75        0.12963        0.3736641605839415        0        
C2        C        0.78125        0.185185        0.3736641605839415        0        
C3        C        0.75        0.203703        0.3736641605839415        0        
C4        C        0.78125        0.148148        0.3736641605839415        0        
C1        C        0.75        0.24074099999999998        0.3736641605839415        0        
C2        C        0.78125        0.296297        0.3736641605839415        0        
C3        C        0.75        0.314815        0.3736641605839415        0        
C4        C        0.78125        0.259259        0.3736641605839415        0        
C1        C        0.75        0.351852        0.3736641605839415        0        
C2        C        0.78125        0.407408        0.3736641605839415        0        
C3        C        0.75        0.425925        0.3736641605839415        0        
C4        C        0.78125        0.37037        0.3736641605839415        0        
C1        C        0.75        0.46296300000000007        0.3736641605839415        0        
C2        C        0.78125        0.518519        0.3736641605839415        0        
C3        C        0.75        0.537037        0.3736641605839415        0        
C4        C        0.78125        0.481481        0.3736641605839415        0        
C1        C        0.75        0.574075        0.3736641605839415        0        
C2        C        0.78125        0.62963        0.3736641605839415        0        
C3        C        0.75        0.648148        0.3736641605839415        0        
C4        C        0.78125        0.592592        0.3736641605839415        0        
C1        C        0.8125        0.018519        0.3736641605839415        0        
C2        C        0.84375        0.074075        0.3736641605839415        0        
C3        C        0.8125        0.092592        0.3736641605839415        0        
C4        C        0.84375        0.037037        0.3736641605839415        0        
C1        C        0.8125        0.12963        0.3736641605839415        0        
C2        C        0.84375        0.185185        0.3736641605839415        0        
C3        C        0.8125        0.203703        0.3736641605839415        0        
C4        C        0.84375        0.148148        0.3736641605839415        0        
C1        C        0.8125        0.24074099999999998        0.3736641605839415        0        
C2        C        0.84375        0.296297        0.3736641605839415        0        
C3        C        0.8125        0.314815        0.3736641605839415        0        
C4        C        0.84375        0.259259        0.3736641605839415        0        
C1        C        0.8125        0.351852        0.3736641605839415        0        
C2        C        0.84375        0.407408        0.3736641605839415        0        
C3        C        0.8125        0.425925        0.3736641605839415        0        
C4        C        0.84375        0.37037        0.3736641605839415        0        
C1        C        0.8125        0.46296300000000007        0.3736641605839415        0        
C2        C        0.84375        0.518519        0.3736641605839415        0        
C3        C        0.8125        0.537037        0.3736641605839415        0        
C4        C        0.84375        0.481481        0.3736641605839415        0        
C1        C        0.8125        0.574075        0.3736641605839415        0        
C2        C        0.84375        0.62963        0.3736641605839415        0        
C3        C        0.8125        0.648148        0.3736641605839415        0        
C4        C        0.84375        0.592592        0.3736641605839415        0        
C1        C        0.875        0.018519        0.3736641605839415        0        
C2        C        0.9062500000000001        0.074075        0.3736641605839415        0        
C3        C        0.875        0.092592        0.3736641605839415        0        
C4        C        0.9062500000000001        0.037037        0.3736641605839415        0        
C1        C        0.875        0.12963        0.3736641605839415        0        
C2        C        0.9062500000000001        0.185185        0.3736641605839415        0        
C3        C        0.875        0.203703        0.3736641605839415        0        
C4        C        0.9062500000000001        0.148148        0.3736641605839415        0        
C1        C        0.875        0.24074099999999998        0.3736641605839415        0        
C2        C        0.9062500000000001        0.296297        0.3736641605839415        0        
C3        C        0.875        0.314815        0.3736641605839415        0        
C4        C        0.9062500000000001        0.259259        0.3736641605839415        0        
C1        C        0.875        0.351852        0.3736641605839415        0        
C2        C        0.9062500000000001        0.407408        0.3736641605839415        0        
C3        C        0.875        0.425925        0.3736641605839415        0        
C4        C        0.9062500000000001        0.37037        0.3736641605839415        0        
C1        C        0.875        0.46296300000000007        0.3736641605839415        0        
C2        C        0.9062500000000001        0.518519        0.3736641605839415        0        
C3        C        0.875        0.537037        0.3736641605839415        0        
C4        C        0.9062500000000001        0.481481        0.3736641605839415        0        
C1        C        0.875        0.574075        0.3736641605839415        0        
C2        C        0.9062500000000001        0.62963        0.3736641605839415        0        
C3        C        0.875        0.648148        0.3736641605839415        0        
C4        C        0.9062500000000001        0.592592        0.3736641605839415        0        
C1        C        0.9375        0.018519        0.3736641605839415        0        
C2        C        0.9687500000000001        0.074075        0.3736641605839415        0        
C3        C        0.9375        0.092592        0.3736641605839415        0        
C4        C        0.9687500000000001        0.037037        0.3736641605839415        0        
C1        C        0.9375        0.12963        0.3736641605839415        0        
C2        C        0.9687500000000001        0.185185        0.3736641605839415        0        
C3        C        0.9375        0.203703        0.3736641605839415        0        
C4        C        0.9687500000000001        0.148148        0.3736641605839415        0        
C1        C        0.9375        0.24074099999999998        0.3736641605839415        0        
C2        C        0.9687500000000001        0.296297        0.3736641605839415        0        
C3        C        0.9375        0.314815        0.3736641605839415        0        
C4        C        0.9687500000000001        0.259259        0.3736641605839415        0        
C1        C        0.9375        0.351852        0.3736641605839415        0        
C2        C        0.9687500000000001        0.407408        0.3736641605839415        0        
C3        C        0.9375        0.425925        0.3736641605839415        0        
C4        C        0.9687500000000001        0.37037        0.3736641605839415        0        
C1        C        0.9375        0.46296300000000007        0.3736641605839415        0        
C2        C        0.9687500000000001        0.518519        0.3736641605839415        0        
C3        C        0.9375        0.537037        0.3736641605839415        0        
C4        C        0.9687500000000001        0.481481        0.3736641605839415        0        
C1        C        0.9375        0.574075        0.3736641605839415        0        
C2        C        0.9687500000000001        0.62963        0.3736641605839415        0        
C3        C        0.9375        0.648148        0.3736641605839415        0        
C4        C        0.9687500000000001        0.592592        0.3736641605839415        0        
C1        C        0.0        0.685186        0.3736641605839415        0        
C1        C        0.0625        0.685186        0.3736641605839415        0        
C1        C        0.125        0.685186        0.3736641605839415        0        
C1        C        0.1875        0.685186        0.3736641605839415        0        
C1        C        0.25        0.685186        0.3736641605839415        0        
C1        C        0.3125        0.685186        0.3736641605839415        0        
C1        C        0.375        0.685186        0.3736641605839415        0        
C1        C        0.4375        0.685186        0.3736641605839415        0        
C1        C        0.5        0.685186        0.3736641605839415        0        
C1        C        0.5625        0.685186        0.3736641605839415        0        
C1        C        0.625        0.685186        0.3736641605839415        0        
C1        C        0.6875        0.685186        0.3736641605839415        0        
C1        C        0.75        0.685186        0.3736641605839415        0        
C1        C        0.8125        0.685186        0.3736641605839415        0        
C1        C        0.875        0.685186        0.3736641605839415        0        
C1        C        0.9375        0.685186        0.3736641605839415        0        
C2        C        0.03125        0.740741        0.3736641605839415        0        
C2        C        0.09375        0.740741        0.3736641605839415        0        
C2        C        0.15625        0.740741        0.3736641605839415        0        
C2        C        0.21875        0.740741        0.3736641605839415        0        
C2        C        0.28125        0.740741        0.3736641605839415        0        
C2        C        0.34375        0.740741        0.3736641605839415        0        
C2        C        0.40625        0.740741        0.3736641605839415        0        
C2        C        0.46875        0.740741        0.3736641605839415        0        
C2        C        0.53125        0.740741        0.3736641605839415        0        
C2        C        0.59375        0.740741        0.3736641605839415        0        
C2        C        0.65625        0.740741        0.3736641605839415        0        
C2        C        0.71875        0.740741        0.3736641605839415        0        
C2        C        0.78125        0.740741        0.3736641605839415        0        
C2        C        0.84375        0.740741        0.3736641605839415        0        
C2        C        0.9062500000000001        0.740741        0.3736641605839415        0        
C2        C        0.9687500000000001        0.740741        0.3736641605839415        0        
C3        C        0.0        0.759259        0.3736641605839415        0        
C3        C        0.0625        0.759259        0.3736641605839415        0        
C3        C        0.125        0.759259        0.3736641605839415        0        
C3        C        0.1875        0.759259        0.3736641605839415        0        
C3        C        0.25        0.759259        0.3736641605839415        0        
C3        C        0.3125        0.759259        0.3736641605839415        0        
C3        C        0.375        0.759259        0.3736641605839415        0        
C3        C        0.4375        0.759259        0.3736641605839415        0        
C3        C        0.5        0.759259        0.3736641605839415        0        
C3        C        0.5625        0.759259        0.3736641605839415        0        
C3        C        0.625        0.759259        0.3736641605839415        0        
C3        C        0.6875        0.759259        0.3736641605839415        0        
C3        C        0.75        0.759259        0.3736641605839415        0        
C3        C        0.8125        0.759259        0.3736641605839415        0        
C3        C        0.875        0.759259        0.3736641605839415        0        
C3        C        0.9375        0.759259        0.3736641605839415        0        
C4        C        0.03125        0.703703        0.3736641605839415        0        
C4        C        0.09375        0.703703        0.3736641605839415        0        
C4        C        0.15625        0.703703        0.3736641605839415        0        
C4        C        0.21875        0.703703        0.3736641605839415        0        
C4        C        0.28125        0.703703        0.3736641605839415        0        
C4        C        0.34375        0.703703        0.3736641605839415        0        
C4        C        0.40625        0.703703        0.3736641605839415        0        
C4        C        0.46875        0.703703        0.3736641605839415        0        
C4        C        0.53125        0.703703        0.3736641605839415        0        
C4        C        0.59375        0.703703        0.3736641605839415        0        
C4        C        0.65625        0.703703        0.3736641605839415        0        
C4        C        0.71875        0.703703        0.3736641605839415        0        
C4        C        0.78125        0.703703        0.3736641605839415        0        
C4        C        0.84375        0.703703        0.3736641605839415        0        
C4        C        0.9062500000000001        0.703703        0.3736641605839415        0        
C4        C        0.9687500000000001        0.703703        0.3736641605839415        0        
C1        C        0.0        0.796297        0.3736641605839415        0        
C1        C        0.0625        0.796297        0.3736641605839415        0        
C1        C        0.125        0.796297        0.3736641605839415        0        
C1        C        0.1875        0.796297        0.3736641605839415        0        
C1        C        0.25        0.796297        0.3736641605839415        0        
C1        C        0.3125        0.796297        0.3736641605839415        0        
C1        C        0.375        0.796297        0.3736641605839415        0        
C1        C        0.4375        0.796297        0.3736641605839415        0        
C1        C        0.5        0.796297        0.3736641605839415        0        
C1        C        0.5625        0.796297        0.3736641605839415        0        
C1        C        0.625        0.796297        0.3736641605839415        0        
C1        C        0.6875        0.796297        0.3736641605839415        0        
C1        C        0.75        0.796297        0.3736641605839415        0        
C1        C        0.8125        0.796297        0.3736641605839415        0        
C1        C        0.875        0.796297        0.3736641605839415        0        
C1        C        0.9375        0.796297        0.3736641605839415        0        
C2        C        0.03125        0.851852        0.3736641605839415        0        
C2        C        0.09375        0.851852        0.3736641605839415        0        
C2        C        0.15625        0.851852        0.3736641605839415        0        
C2        C        0.21875        0.851852        0.3736641605839415        0        
C2        C        0.28125        0.851852        0.3736641605839415        0        
C2        C        0.34375        0.851852        0.3736641605839415        0        
C2        C        0.40625        0.851852        0.3736641605839415        0        
C2        C        0.46875        0.851852        0.3736641605839415        0        
C2        C        0.53125        0.851852        0.3736641605839415        0        
C2        C        0.59375        0.851852        0.3736641605839415        0        
C2        C        0.65625        0.851852        0.3736641605839415        0        
C2        C        0.71875        0.851852        0.3736641605839415        0        
C2        C        0.78125        0.851852        0.3736641605839415        0        
C2        C        0.84375        0.851852        0.3736641605839415        0        
C2        C        0.9062500000000001        0.851852        0.3736641605839415        0        
C2        C        0.9687500000000001        0.851852        0.3736641605839415        0        
C3        C        0.0        0.87037        0.3736641605839415        0        
C3        C        0.0625        0.87037        0.3736641605839415        0        
C3        C        0.125        0.87037        0.3736641605839415        0        
C3        C        0.1875        0.87037        0.3736641605839415        0        
C3        C        0.25        0.87037        0.3736641605839415        0        
C3        C        0.3125        0.87037        0.3736641605839415        0        
C3        C        0.375        0.87037        0.3736641605839415        0        
C3        C        0.4375        0.87037        0.3736641605839415        0        
C3        C        0.5        0.87037        0.3736641605839415        0        
C3        C        0.5625        0.87037        0.3736641605839415        0        
C3        C        0.625        0.87037        0.3736641605839415        0        
C3        C        0.6875        0.87037        0.3736641605839415        0        
C3        C        0.75        0.87037        0.3736641605839415        0        
C3        C        0.8125        0.87037        0.3736641605839415        0        
C3        C        0.875        0.87037        0.3736641605839415        0        
C3        C        0.9375        0.87037        0.3736641605839415        0        
C4        C        0.03125        0.814814        0.3736641605839415        0        
C4        C        0.09375        0.814814        0.3736641605839415        0        
C4        C        0.15625        0.814814        0.3736641605839415        0        
C4        C        0.21875        0.814814        0.3736641605839415        0        
C4        C        0.28125        0.814814        0.3736641605839415        0        
C4        C        0.34375        0.814814        0.3736641605839415        0        
C4        C        0.40625        0.814814        0.3736641605839415        0        
C4        C        0.46875        0.814814        0.3736641605839415        0        
C4        C        0.53125        0.814814        0.3736641605839415        0        
C4        C        0.59375        0.814814        0.3736641605839415        0        
C4        C        0.65625        0.814814        0.3736641605839415        0        
C4        C        0.71875        0.814814        0.3736641605839415        0        
C4        C        0.78125        0.814814        0.3736641605839415        0        
C4        C        0.84375        0.814814        0.3736641605839415        0        
C4        C        0.9062500000000001        0.814814        0.3736641605839415        0        
C4        C        0.9687500000000001        0.814814        0.3736641605839415        0        
C1        C        0.0        0.907408        0.3736641605839415        0        
C1        C        0.0625        0.907408        0.3736641605839415        0        
C1        C        0.125        0.907408        0.3736641605839415        0        
C1        C        0.1875        0.907408        0.3736641605839415        0        
C1        C        0.25        0.907408        0.3736641605839415        0        
C1        C        0.3125        0.907408        0.3736641605839415        0        
C1        C        0.375        0.907408        0.3736641605839415        0        
C1        C        0.4375        0.907408        0.3736641605839415        0        
C1        C        0.5        0.907408        0.3736641605839415        0        
C1        C        0.5625        0.907408        0.3736641605839415        0        
C1        C        0.625        0.907408        0.3736641605839415        0        
C1        C        0.6875        0.907408        0.3736641605839415        0        
C1        C        0.75        0.907408        0.3736641605839415        0        
C1        C        0.8125        0.907408        0.3736641605839415        0        
C1        C        0.875        0.907408        0.3736641605839415        0        
C1        C        0.9375        0.907408        0.3736641605839415        0        
C2        C        0.03125        0.962963        0.3736641605839415        0        
C2        C        0.09375        0.962963        0.3736641605839415        0        
C2        C        0.15625        0.962963        0.3736641605839415        0        
C2        C        0.21875        0.962963        0.3736641605839415        0        
C2        C        0.28125        0.962963        0.3736641605839415        0        
C2        C        0.34375        0.962963        0.3736641605839415        0        
C2        C        0.40625        0.962963        0.3736641605839415        0        
C2        C        0.46875        0.962963        0.3736641605839415        0        
C2        C        0.53125        0.962963        0.3736641605839415        0        
C2        C        0.59375        0.962963        0.3736641605839415        0        
C2        C        0.65625        0.962963        0.3736641605839415        0        
C2        C        0.71875        0.962963        0.3736641605839415        0        
C2        C        0.78125        0.962963        0.3736641605839415        0        
C2        C        0.84375        0.962963        0.3736641605839415        0        
C2        C        0.9062500000000001        0.962963        0.3736641605839415        0        
C2        C        0.9687500000000001        0.962963        0.3736641605839415        0        
C3        C        0.0        0.9814809999999999        0.3736641605839415        0        
C3        C        0.0625        0.9814809999999999        0.3736641605839415        0        
C3        C        0.125        0.9814809999999999        0.3736641605839415        0        
C3        C        0.1875        0.9814809999999999        0.3736641605839415        0        
C3        C        0.25        0.9814809999999999        0.3736641605839415        0        
C3        C        0.3125        0.9814809999999999        0.3736641605839415        0        
C3        C        0.375        0.9814809999999999        0.3736641605839415        0        
C3        C        0.4375        0.9814809999999999        0.3736641605839415        0        
C3        C        0.5        0.9814809999999999        0.3736641605839415        0        
C3        C        0.5625        0.9814809999999999        0.3736641605839415        0        
C3        C        0.625        0.9814809999999999        0.3736641605839415        0        
C3        C        0.6875        0.9814809999999999        0.3736641605839415        0        
C3        C        0.75        0.9814809999999999        0.3736641605839415        0        
C3        C        0.8125        0.9814809999999999        0.3736641605839415        0        
C3        C        0.875        0.9814809999999999        0.3736641605839415        0        
C3        C        0.9375        0.9814809999999999        0.3736641605839415        0        
C4        C        0.03125        0.925925        0.3736641605839415        0        
C4        C        0.09375        0.925925        0.3736641605839415        0        
C4        C        0.15625        0.925925        0.3736641605839415        0        
C4        C        0.21875        0.925925        0.3736641605839415        0        
C4        C        0.28125        0.925925        0.3736641605839415        0        
C4        C        0.34375        0.925925        0.3736641605839415        0        
C4        C        0.40625        0.925925        0.3736641605839415        0        
C4        C        0.46875        0.925925        0.3736641605839415        0        
C4        C        0.53125        0.925925        0.3736641605839415        0        
C4        C        0.59375        0.925925        0.3736641605839415        0        
C4        C        0.65625        0.925925        0.3736641605839415        0        
C4        C        0.71875        0.925925        0.3736641605839415        0        
C4        C        0.78125        0.925925        0.3736641605839415        0        
C4        C        0.84375        0.925925        0.3736641605839415        0        
C4        C        0.9062500000000001        0.925925        0.3736641605839415        0        
C4        C        0.9687500000000001        0.925925        0.3736641605839415        0        
C1        C        0.0        0.018519        0.618189708029197        0        
C_FG        C        0.03125        0.074075        0.618189708029197        0.2        
C3        C        0.0        0.092592        0.618189708029197        0        
C4        C        0.03125        0.037037        0.618189708029197        0        
C1        C        0.0        0.12963        0.618189708029197        0        
C2        C        0.03125        0.185185        0.618189708029197        0        
C3        C        0.0        0.203703        0.618189708029197        0        
C_FG        C        0.03125        0.148148        0.618189708029197        0.2        
C1        C        0.0        0.24074099999999998        0.618189708029197        0        
C_FG        C        0.03125        0.296297        0.618189708029197        0.2        
C3        C        0.0        0.314815        0.618189708029197        0        
C4        C        0.03125        0.259259        0.618189708029197        0        
C1        C        0.0        0.351852        0.618189708029197        0        
C_FG        C        0.03125        0.407408        0.618189708029197        0.2        
C3        C        0.0        0.425925        0.618189708029197        0        
C4        C        0.03125        0.37037        0.618189708029197        0        
C1        C        0.0        0.46296300000000007        0.618189708029197        0        
C2        C        0.03125        0.518519        0.618189708029197        0        
C3        C        0.0        0.537037        0.618189708029197        0        
C_FG        C        0.03125        0.481481        0.618189708029197        0.2        
C1        C        0.0        0.574075        0.618189708029197        0        
C_FG        C        0.03125        0.62963        0.618189708029197        0.2        
C3        C        0.0        0.648148        0.618189708029197        0        
C4        C        0.03125        0.592592        0.618189708029197        0        
C1        C        0.0625        0.018519        0.618189708029197        0        
C2        C        0.09375        0.074075        0.618189708029197        0        
C3        C        0.0625        0.092592        0.618189708029197        0        
C4        C        0.09375        0.037037        0.618189708029197        0        
C1        C        0.0625        0.12963        0.618189708029197        0        
C2        C        0.09375        0.185185        0.618189708029197        0        
C3        C        0.0625        0.203703        0.618189708029197        0        
C4        C        0.09375        0.148148        0.618189708029197        0        
C1        C        0.0625        0.24074099999999998        0.618189708029197        0        
C2        C        0.09375        0.296297        0.618189708029197        0        
C3        C        0.0625        0.314815        0.618189708029197        0        
C4        C        0.09375        0.259259        0.618189708029197        0        
C1        C        0.0625        0.351852        0.618189708029197        0        
C2        C        0.09375        0.407408        0.618189708029197        0        
C3        C        0.0625        0.425925        0.618189708029197        0        
C4        C        0.09375        0.37037        0.618189708029197        0        
C1        C        0.0625        0.46296300000000007        0.618189708029197        0        
C2        C        0.09375        0.518519        0.618189708029197        0        
C3        C        0.0625        0.537037        0.618189708029197        0        
C4        C        0.09375        0.481481        0.618189708029197        0        
C1        C        0.0625        0.574075        0.618189708029197        0        
C2        C        0.09375        0.62963        0.618189708029197        0        
C3        C        0.0625        0.648148        0.618189708029197        0        
C4        C        0.09375        0.592592        0.618189708029197        0        
C1        C        0.125        0.018519        0.618189708029197        0        
C_FG        C        0.15625        0.074075        0.618189708029197        0.2        
C3        C        0.125        0.092592        0.618189708029197        0        
C4        C        0.15625        0.037037        0.618189708029197        0        
C1        C        0.125        0.12963        0.618189708029197        0        
C2        C        0.15625        0.185185        0.618189708029197        0        
C3        C        0.125        0.203703        0.618189708029197        0        
C_FG        C        0.15625        0.148148        0.618189708029197        0.2        
C1        C        0.125        0.24074099999999998        0.618189708029197        0        
C_FG        C        0.15625        0.296297        0.618189708029197        0.2        
C3        C        0.125        0.314815        0.618189708029197        0        
C4        C        0.15625        0.259259        0.618189708029197        0        
C1        C        0.125        0.351852        0.618189708029197        0        
C_FG        C        0.15625        0.407408        0.618189708029197        0.2        
C3        C        0.125        0.425925        0.618189708029197        0        
C4        C        0.15625        0.37037        0.618189708029197        0        
C1        C        0.125        0.46296300000000007        0.618189708029197        0        
C2        C        0.15625        0.518519        0.618189708029197        0        
C3        C        0.125        0.537037        0.618189708029197        0        
C_FG        C        0.15625        0.481481        0.618189708029197        0.2        
C1        C        0.125        0.574075        0.618189708029197        0        
C_FG        C        0.15625        0.62963        0.618189708029197        0.2        
C3        C        0.125        0.648148        0.618189708029197        0        
C4        C        0.15625        0.592592        0.618189708029197        0        
C_FG        C        0.1875        0.018519        0.618189708029197        0.2        
C2        C        0.21875        0.074075        0.618189708029197        0        
C_FG        C        0.1875        0.092592        0.618189708029197        0.2        
C4        C        0.21875        0.037037        0.618189708029197        0        
C_FG        C        0.1875        0.12963        0.618189708029197        0.2        
C2        C        0.21875        0.185185        0.618189708029197        0        
C_FG        C        0.1875        0.203703        0.618189708029197        0.2        
C4        C        0.21875        0.148148        0.618189708029197        0        
C_FG        C        0.1875        0.24074099999999998        0.618189708029197        0.2        
C2        C        0.21875        0.296297        0.618189708029197        0        
C_FG        C        0.1875        0.314815        0.618189708029197        0.2        
C4        C        0.21875        0.259259        0.618189708029197        0        
C_FG        C        0.1875        0.351852        0.618189708029197        0.2        
C2        C        0.21875        0.407408        0.618189708029197        0        
C3        C        0.1875        0.425925        0.618189708029197        0        
C4        C        0.21875        0.37037        0.618189708029197        0        
C_FG        C        0.1875        0.46296300000000007        0.618189708029197        0.2        
C2        C        0.21875        0.518519        0.618189708029197        0        
C_FG        C        0.1875        0.537037        0.618189708029197        0.2        
C4        C        0.21875        0.481481        0.618189708029197        0        
C1        C        0.1875        0.574075        0.618189708029197        0        
C2        C        0.21875        0.62963        0.618189708029197        0        
C_FG        C        0.1875        0.648148        0.618189708029197        0.2        
C4        C        0.21875        0.592592        0.618189708029197        0        
C_FG        C        0.25        0.018519        0.618189708029197        0.2        
C2        C        0.28125        0.074075        0.618189708029197        0        
C_FG        C        0.25        0.092592        0.618189708029197        0.2        
C4        C        0.28125        0.037037        0.618189708029197        0        
C_FG        C        0.25        0.12963        0.618189708029197        0.2        
C2        C        0.28125        0.185185        0.618189708029197        0        
C_FG        C        0.25        0.203703        0.618189708029197        0.2        
C4        C        0.28125        0.148148        0.618189708029197        0        
C_FG        C        0.25        0.24074099999999998        0.618189708029197        0.2        
C2        C        0.28125        0.296297        0.618189708029197        0        
C_FG        C        0.25        0.314815        0.618189708029197        0.2        
C4        C        0.28125        0.259259        0.618189708029197        0        
C_FG        C        0.25        0.351852        0.618189708029197        0.2        
C2        C        0.28125        0.407408        0.618189708029197        0        
C3        C        0.25        0.425925        0.618189708029197        0        
C4        C        0.28125        0.37037        0.618189708029197        0        
C_FG        C        0.25        0.46296300000000007        0.618189708029197        0.2        
C2        C        0.28125        0.518519        0.618189708029197        0        
C_FG        C        0.25        0.537037        0.618189708029197        0.2        
C4        C        0.28125        0.481481        0.618189708029197        0        
C1        C        0.25        0.574075        0.618189708029197        0        
C2        C        0.28125        0.62963        0.618189708029197        0        
C_FG        C        0.25        0.648148        0.618189708029197        0.2        
C4        C        0.28125        0.592592        0.618189708029197        0        
C_FG        C        0.3125        0.018519        0.618189708029197        0.2        
C2        C        0.34375        0.074075        0.618189708029197        0        
C_FG        C        0.3125        0.092592        0.618189708029197        0.2        
C4        C        0.34375        0.037037        0.618189708029197        0        
C_FG        C        0.3125        0.12963        0.618189708029197        0.2        
C2        C        0.34375        0.185185        0.618189708029197        0        
C_FG        C        0.3125        0.203703        0.618189708029197        0.2        
C4        C        0.34375        0.148148        0.618189708029197        0        
C_FG        C        0.3125        0.24074099999999998        0.618189708029197        0.2        
C2        C        0.34375        0.296297        0.618189708029197        0        
C_FG        C        0.3125        0.314815        0.618189708029197        0.2        
C4        C        0.34375        0.259259        0.618189708029197        0        
C_FG        C        0.3125        0.351852        0.618189708029197        0.2        
C2        C        0.34375        0.407408        0.618189708029197        0        
C3        C        0.3125        0.425925        0.618189708029197        0        
C4        C        0.34375        0.37037        0.618189708029197        0        
C_FG        C        0.3125        0.46296300000000007        0.618189708029197        0.2        
C2        C        0.34375        0.518519        0.618189708029197        0        
C_FG        C        0.3125        0.537037        0.618189708029197        0.2        
C4        C        0.34375        0.481481        0.618189708029197        0        
C1        C        0.3125        0.574075        0.618189708029197        0        
C2        C        0.34375        0.62963        0.618189708029197        0        
C_FG        C        0.3125        0.648148        0.618189708029197        0.2        
C4        C        0.34375        0.592592        0.618189708029197        0        
C1        C        0.375        0.018519        0.618189708029197        0        
C2        C        0.40625        0.074075        0.618189708029197        0        
C3        C        0.375        0.092592        0.618189708029197        0        
C4        C        0.40625        0.037037        0.618189708029197        0        
C1        C        0.375        0.12963        0.618189708029197        0        
C2        C        0.40625        0.185185        0.618189708029197        0        
C3        C        0.375        0.203703        0.618189708029197        0        
C4        C        0.40625        0.148148        0.618189708029197        0        
C1        C        0.375        0.24074099999999998        0.618189708029197        0        
C2        C        0.40625        0.296297        0.618189708029197        0        
C3        C        0.375        0.314815        0.618189708029197        0        
C4        C        0.40625        0.259259        0.618189708029197        0        
C1        C        0.375        0.351852        0.618189708029197        0        
C2        C        0.40625        0.407408        0.618189708029197        0        
C3        C        0.375        0.425925        0.618189708029197        0        
C4        C        0.40625        0.37037        0.618189708029197        0        
C1        C        0.375        0.46296300000000007        0.618189708029197        0        
C2        C        0.40625        0.518519        0.618189708029197        0        
C3        C        0.375        0.537037        0.618189708029197        0        
C4        C        0.40625        0.481481        0.618189708029197        0        
C1        C        0.375        0.574075        0.618189708029197        0        
C2        C        0.40625        0.62963        0.618189708029197        0        
C3        C        0.375        0.648148        0.618189708029197        0        
C4        C        0.40625        0.592592        0.618189708029197        0        
C1        C        0.4375        0.018519        0.618189708029197        0        
C2        C        0.46875        0.074075        0.618189708029197        0        
C3        C        0.4375        0.092592        0.618189708029197        0        
C4        C        0.46875        0.037037        0.618189708029197        0        
C1        C        0.4375        0.12963        0.618189708029197        0        
C2        C        0.46875        0.185185        0.618189708029197        0        
C3        C        0.4375        0.203703        0.618189708029197        0        
C4        C        0.46875        0.148148        0.618189708029197        0        
C1        C        0.4375        0.24074099999999998        0.618189708029197        0        
C2        C        0.46875        0.296297        0.618189708029197        0        
C3        C        0.4375        0.314815        0.618189708029197        0        
C4        C        0.46875        0.259259        0.618189708029197        0        
C1        C        0.4375        0.351852        0.618189708029197        0        
C2        C        0.46875        0.407408        0.618189708029197        0        
C3        C        0.4375        0.425925        0.618189708029197        0        
C4        C        0.46875        0.37037        0.618189708029197        0        
C1        C        0.4375        0.46296300000000007        0.618189708029197        0        
C2        C        0.46875        0.518519        0.618189708029197        0        
C3        C        0.4375        0.537037        0.618189708029197        0        
C4        C        0.46875        0.481481        0.618189708029197        0        
C1        C        0.4375        0.574075        0.618189708029197        0        
C2        C        0.46875        0.62963        0.618189708029197        0        
C3        C        0.4375        0.648148        0.618189708029197        0        
C4        C        0.46875        0.592592        0.618189708029197        0        
C1        C        0.5        0.018519        0.618189708029197        0        
C2        C        0.53125        0.074075        0.618189708029197        0        
C3        C        0.5        0.092592        0.618189708029197        0        
C4        C        0.53125        0.037037        0.618189708029197        0        
C1        C        0.5        0.12963        0.618189708029197        0        
C2        C        0.53125        0.185185        0.618189708029197        0        
C3        C        0.5        0.203703        0.618189708029197        0        
C4        C        0.53125        0.148148        0.618189708029197        0        
C1        C        0.5        0.24074099999999998        0.618189708029197        0        
C2        C        0.53125        0.296297        0.618189708029197        0        
C3        C        0.5        0.314815        0.618189708029197        0        
C4        C        0.53125        0.259259        0.618189708029197        0        
C1        C        0.5        0.351852        0.618189708029197        0        
C2        C        0.53125        0.407408        0.618189708029197        0        
C3        C        0.5        0.425925        0.618189708029197        0        
C4        C        0.53125        0.37037        0.618189708029197        0        
C1        C        0.5        0.46296300000000007        0.618189708029197        0        
C2        C        0.53125        0.518519        0.618189708029197        0        
C3        C        0.5        0.537037        0.618189708029197        0        
C4        C        0.53125        0.481481        0.618189708029197        0        
C1        C        0.5        0.574075        0.618189708029197        0        
C2        C        0.53125        0.62963        0.618189708029197        0        
C3        C        0.5        0.648148        0.618189708029197        0        
C4        C        0.53125        0.592592        0.618189708029197        0        
C1        C        0.5625        0.018519        0.618189708029197        0        
C2        C        0.59375        0.074075        0.618189708029197        0        
C3        C        0.5625        0.092592        0.618189708029197        0        
C4        C        0.59375        0.037037        0.618189708029197        0        
C1        C        0.5625        0.12963        0.618189708029197        0        
C2        C        0.59375        0.185185        0.618189708029197        0        
C3        C        0.5625        0.203703        0.618189708029197        0        
C4        C        0.59375        0.148148        0.618189708029197        0        
C1        C        0.5625        0.24074099999999998        0.618189708029197        0        
C2        C        0.59375        0.296297        0.618189708029197        0        
C3        C        0.5625        0.314815        0.618189708029197        0        
C4        C        0.59375        0.259259        0.618189708029197        0        
C1        C        0.5625        0.351852        0.618189708029197        0        
C2        C        0.59375        0.407408        0.618189708029197        0        
C3        C        0.5625        0.425925        0.618189708029197        0        
C4        C        0.59375        0.37037        0.618189708029197        0        
C1        C        0.5625        0.46296300000000007        0.618189708029197        0        
C2        C        0.59375        0.518519        0.618189708029197        0        
C3        C        0.5625        0.537037        0.618189708029197        0        
C4        C        0.59375        0.481481        0.618189708029197        0        
C1        C        0.5625        0.574075        0.618189708029197        0        
C2        C        0.59375        0.62963        0.618189708029197        0        
C3        C        0.5625        0.648148        0.618189708029197        0        
C4        C        0.59375        0.592592        0.618189708029197        0        
C1        C        0.625        0.018519        0.618189708029197        0        
C2        C        0.65625        0.074075        0.618189708029197        0        
C3        C        0.625        0.092592        0.618189708029197        0        
C4        C        0.65625        0.037037        0.618189708029197        0        
C1        C        0.625        0.12963        0.618189708029197        0        
C2        C        0.65625        0.185185        0.618189708029197        0        
C3        C        0.625        0.203703        0.618189708029197        0        
C4        C        0.65625        0.148148        0.618189708029197        0        
C1        C        0.625        0.24074099999999998        0.618189708029197        0        
C2        C        0.65625        0.296297        0.618189708029197        0        
C3        C        0.625        0.314815        0.618189708029197        0        
C4        C        0.65625        0.259259        0.618189708029197        0        
C1        C        0.625        0.351852        0.618189708029197        0        
C2        C        0.65625        0.407408        0.618189708029197        0        
C3        C        0.625        0.425925        0.618189708029197        0        
C4        C        0.65625        0.37037        0.618189708029197        0        
C1        C        0.625        0.46296300000000007        0.618189708029197        0        
C2        C        0.65625        0.518519        0.618189708029197        0        
C3        C        0.625        0.537037        0.618189708029197        0        
C4        C        0.65625        0.481481        0.618189708029197        0        
C1        C        0.625        0.574075        0.618189708029197        0        
C2        C        0.65625        0.62963        0.618189708029197        0        
C3        C        0.625        0.648148        0.618189708029197        0        
C4        C        0.65625        0.592592        0.618189708029197        0        
C_FG        C        0.6875        0.018519        0.618189708029197        0.2        
C_FG        C        0.71875        0.074075        0.618189708029197        0.2        
C_FG        C        0.6875        0.092592        0.618189708029197        0.2        
C4        C        0.71875        0.037037        0.618189708029197        0        
C_FG        C        0.6875        0.12963        0.618189708029197        0.2        
C2        C        0.71875        0.185185        0.618189708029197        0        
C_FG        C        0.6875        0.203703        0.618189708029197        0.2        
C_FG        C        0.71875        0.148148        0.618189708029197        0.2        
C_FG        C        0.6875        0.24074099999999998        0.618189708029197        0.2        
C_FG        C        0.71875        0.296297        0.618189708029197        0.2        
C_FG        C        0.6875        0.314815        0.618189708029197        0.2        
C4        C        0.71875        0.259259        0.618189708029197        0        
C_FG        C        0.6875        0.351852        0.618189708029197        0.2        
C_FG        C        0.71875        0.407408        0.618189708029197        0.2        
C3        C        0.6875        0.425925        0.618189708029197        0        
C4        C        0.71875        0.37037        0.618189708029197        0        
C_FG        C        0.6875        0.46296300000000007        0.618189708029197        0.2        
C2        C        0.71875        0.518519        0.618189708029197        0        
C_FG        C        0.6875        0.537037        0.618189708029197        0.2        
C_FG        C        0.71875        0.481481        0.618189708029197        0.2        
C1        C        0.6875        0.574075        0.618189708029197        0        
C_FG        C        0.71875        0.62963        0.618189708029197        0.2        
C_FG        C        0.6875        0.648148        0.618189708029197        0.2        
C4        C        0.71875        0.592592        0.618189708029197        0        
C1        C        0.75        0.018519        0.618189708029197        0        
C2        C        0.78125        0.074075        0.618189708029197        0        
C3        C        0.75        0.092592        0.618189708029197        0        
C4        C        0.78125        0.037037        0.618189708029197        0        
C1        C        0.75        0.12963        0.618189708029197        0        
C2        C        0.78125        0.185185        0.618189708029197        0        
C3        C        0.75        0.203703        0.618189708029197        0        
C4        C        0.78125        0.148148        0.618189708029197        0        
C1        C        0.75        0.24074099999999998        0.618189708029197        0        
C2        C        0.78125        0.296297        0.618189708029197        0        
C3        C        0.75        0.314815        0.618189708029197        0        
C4        C        0.78125        0.259259        0.618189708029197        0        
C1        C        0.75        0.351852        0.618189708029197        0        
C2        C        0.78125        0.407408        0.618189708029197        0        
C3        C        0.75        0.425925        0.618189708029197        0        
C4        C        0.78125        0.37037        0.618189708029197        0        
C1        C        0.75        0.46296300000000007        0.618189708029197        0        
C2        C        0.78125        0.518519        0.618189708029197        0        
C3        C        0.75        0.537037        0.618189708029197        0        
C4        C        0.78125        0.481481        0.618189708029197        0        
C1        C        0.75        0.574075        0.618189708029197        0        
C2        C        0.78125        0.62963        0.618189708029197        0        
C3        C        0.75        0.648148        0.618189708029197        0        
C4        C        0.78125        0.592592        0.618189708029197        0        
C1        C        0.8125        0.018519        0.618189708029197        0        
C_FG        C        0.84375        0.074075        0.618189708029197        0.2        
C3        C        0.8125        0.092592        0.618189708029197        0        
C4        C        0.84375        0.037037        0.618189708029197        0        
C1        C        0.8125        0.12963        0.618189708029197        0        
C2        C        0.84375        0.185185        0.618189708029197        0        
C3        C        0.8125        0.203703        0.618189708029197        0        
C_FG        C        0.84375        0.148148        0.618189708029197        0.2        
C1        C        0.8125        0.24074099999999998        0.618189708029197        0        
C_FG        C        0.84375        0.296297        0.618189708029197        0.2        
C3        C        0.8125        0.314815        0.618189708029197        0        
C4        C        0.84375        0.259259        0.618189708029197        0        
C1        C        0.8125        0.351852        0.618189708029197        0        
C_FG        C        0.84375        0.407408        0.618189708029197        0.2        
C3        C        0.8125        0.425925        0.618189708029197        0        
C4        C        0.84375        0.37037        0.618189708029197        0        
C1        C        0.8125        0.46296300000000007        0.618189708029197        0        
C2        C        0.84375        0.518519        0.618189708029197        0        
C3        C        0.8125        0.537037        0.618189708029197        0        
C_FG        C        0.84375        0.481481        0.618189708029197        0.2        
C1        C        0.8125        0.574075        0.618189708029197        0        
C_FG        C        0.84375        0.62963        0.618189708029197        0.2        
C3        C        0.8125        0.648148        0.618189708029197        0        
C4        C        0.84375        0.592592        0.618189708029197        0        
C_FG        C        0.875        0.018519        0.618189708029197        0.2        
C2        C        0.9062500000000001        0.074075        0.618189708029197        0        
C_FG        C        0.875        0.092592        0.618189708029197        0.2        
C4        C        0.9062500000000001        0.037037        0.618189708029197        0        
C_FG        C        0.875        0.12963        0.618189708029197        0.2        
C2        C        0.9062500000000001        0.185185        0.618189708029197        0        
C_FG        C        0.875        0.203703        0.618189708029197        0.2        
C4        C        0.9062500000000001        0.148148        0.618189708029197        0        
C_FG        C        0.875        0.24074099999999998        0.618189708029197        0.2        
C2        C        0.9062500000000001        0.296297        0.618189708029197        0        
C_FG        C        0.875        0.314815        0.618189708029197        0.2        
C4        C        0.9062500000000001        0.259259        0.618189708029197        0        
C_FG        C        0.875        0.351852        0.618189708029197        0.2        
C2        C        0.9062500000000001        0.407408        0.618189708029197        0        
C3        C        0.875        0.425925        0.618189708029197        0        
C4        C        0.9062500000000001        0.37037        0.618189708029197        0        
C_FG        C        0.875        0.46296300000000007        0.618189708029197        0.2        
C2        C        0.9062500000000001        0.518519        0.618189708029197        0        
C_FG        C        0.875        0.537037        0.618189708029197        0.2        
C4        C        0.9062500000000001        0.481481        0.618189708029197        0        
C1        C        0.875        0.574075        0.618189708029197        0        
C2        C        0.9062500000000001        0.62963        0.618189708029197        0        
C_FG        C        0.875        0.648148        0.618189708029197        0.2        
C4        C        0.9062500000000001        0.592592        0.618189708029197        0        
C1        C        0.9375        0.018519        0.618189708029197        0        
C2        C        0.9687500000000001        0.074075        0.618189708029197        0        
C3        C        0.9375        0.092592        0.618189708029197        0        
C4        C        0.9687500000000001        0.037037        0.618189708029197        0        
C1        C        0.9375        0.12963        0.618189708029197        0        
C2        C        0.9687500000000001        0.185185        0.618189708029197        0        
C3        C        0.9375        0.203703        0.618189708029197        0        
C4        C        0.9687500000000001        0.148148        0.618189708029197        0        
C1        C        0.9375        0.24074099999999998        0.618189708029197        0        
C2        C        0.9687500000000001        0.296297        0.618189708029197        0        
C3        C        0.9375        0.314815        0.618189708029197        0        
C4        C        0.9687500000000001        0.259259        0.618189708029197        0        
C1        C        0.9375        0.351852        0.618189708029197        0        
C2        C        0.9687500000000001        0.407408        0.618189708029197        0        
C3        C        0.9375        0.425925        0.618189708029197        0        
C4        C        0.9687500000000001        0.37037        0.618189708029197        0        
C1        C        0.9375        0.46296300000000007        0.618189708029197        0        
C2        C        0.9687500000000001        0.518519        0.618189708029197        0        
C3        C        0.9375        0.537037        0.618189708029197        0        
C4        C        0.9687500000000001        0.481481        0.618189708029197        0        
C1        C        0.9375        0.574075        0.618189708029197        0        
C2        C        0.9687500000000001        0.62963        0.618189708029197        0        
C3        C        0.9375        0.648148        0.618189708029197        0        
C4        C        0.9687500000000001        0.592592        0.618189708029197        0        
C1        C        0.0        0.685186        0.618189708029197        0        
C1        C        0.0625        0.685186        0.618189708029197        0        
C1        C        0.125        0.685186        0.618189708029197        0        
C_FG        C        0.1875        0.685186        0.618189708029197        0.2        
C_FG        C        0.25        0.685186        0.618189708029197        0.2        
C_FG        C        0.3125        0.685186        0.618189708029197        0.2        
C1        C        0.375        0.685186        0.618189708029197        0        
C1        C        0.4375        0.685186        0.618189708029197        0        
C1        C        0.5        0.685186        0.618189708029197        0        
C1        C        0.5625        0.685186        0.618189708029197        0        
C1        C        0.625        0.685186        0.618189708029197        0        
C_FG        C        0.6875        0.685186        0.618189708029197        0.2        
C1        C        0.75        0.685186        0.618189708029197        0        
C1        C        0.8125        0.685186        0.618189708029197        0        
C_FG        C        0.875        0.685186        0.618189708029197        0.2        
C1        C        0.9375        0.685186        0.618189708029197        0        
C_FG        C        0.03125        0.740741        0.618189708029197        0.2        
C2        C        0.09375        0.740741        0.618189708029197        0        
C_FG        C        0.15625        0.740741        0.618189708029197        0.2        
C2        C        0.21875        0.740741        0.618189708029197        0        
C2        C        0.28125        0.740741        0.618189708029197        0        
C2        C        0.34375        0.740741        0.618189708029197        0        
C2        C        0.40625        0.740741        0.618189708029197        0        
C2        C        0.46875        0.740741        0.618189708029197        0        
C2        C        0.53125        0.740741        0.618189708029197        0        
C2        C        0.59375        0.740741        0.618189708029197        0        
C2        C        0.65625        0.740741        0.618189708029197        0        
C_FG        C        0.71875        0.740741        0.618189708029197        0.2        
C2        C        0.78125        0.740741        0.618189708029197        0        
C_FG        C        0.84375        0.740741        0.618189708029197        0.2        
C2        C        0.9062500000000001        0.740741        0.618189708029197        0        
C2        C        0.9687500000000001        0.740741        0.618189708029197        0        
C3        C        0.0        0.759259        0.618189708029197        0        
C3        C        0.0625        0.759259        0.618189708029197        0        
C3        C        0.125        0.759259        0.618189708029197        0        
C_FG        C        0.1875        0.759259        0.618189708029197        0.2        
C_FG        C        0.25        0.759259        0.618189708029197        0.2        
C_FG        C        0.3125        0.759259        0.618189708029197        0.2        
C3        C        0.375        0.759259        0.618189708029197        0        
C3        C        0.4375        0.759259        0.618189708029197        0        
C3        C        0.5        0.759259        0.618189708029197        0        
C3        C        0.5625        0.759259        0.618189708029197        0        
C3        C        0.625        0.759259        0.618189708029197        0        
C_FG        C        0.6875        0.759259        0.618189708029197        0.2        
C3        C        0.75        0.759259        0.618189708029197        0        
C3        C        0.8125        0.759259        0.618189708029197        0        
C_FG        C        0.875        0.759259        0.618189708029197        0.2        
C3        C        0.9375        0.759259        0.618189708029197        0        
C_FG        C        0.03125        0.703703        0.618189708029197        0.2        
C4        C        0.09375        0.703703        0.618189708029197        0        
C_FG        C        0.15625        0.703703        0.618189708029197        0.2        
C4        C        0.21875        0.703703        0.618189708029197        0        
C4        C        0.28125        0.703703        0.618189708029197        0        
C4        C        0.34375        0.703703        0.618189708029197        0        
C4        C        0.40625        0.703703        0.618189708029197        0        
C4        C        0.46875        0.703703        0.618189708029197        0        
C4        C        0.53125        0.703703        0.618189708029197        0        
C4        C        0.59375        0.703703        0.618189708029197        0        
C4        C        0.65625        0.703703        0.618189708029197        0        
C_FG        C        0.71875        0.703703        0.618189708029197        0.2        
C4        C        0.78125        0.703703        0.618189708029197        0        
C_FG        C        0.84375        0.703703        0.618189708029197        0.2        
C4        C        0.9062500000000001        0.703703        0.618189708029197        0        
C4        C        0.9687500000000001        0.703703        0.618189708029197        0        
C1        C        0.0        0.796297        0.618189708029197        0        
C1        C        0.0625        0.796297        0.618189708029197        0        
C1        C        0.125        0.796297        0.618189708029197        0        
C_FG        C        0.1875        0.796297        0.618189708029197        0.2        
C_FG        C        0.25        0.796297        0.618189708029197        0.2        
C_FG        C        0.3125        0.796297        0.618189708029197        0.2        
C1        C        0.375        0.796297        0.618189708029197        0        
C1        C        0.4375        0.796297        0.618189708029197        0        
C1        C        0.5        0.796297        0.618189708029197        0        
C1        C        0.5625        0.796297        0.618189708029197        0        
C1        C        0.625        0.796297        0.618189708029197        0        
C_FG        C        0.6875        0.796297        0.618189708029197        0.2        
C1        C        0.75        0.796297        0.618189708029197        0        
C1        C        0.8125        0.796297        0.618189708029197        0        
C_FG        C        0.875        0.796297        0.618189708029197        0.2        
C1        C        0.9375        0.796297        0.618189708029197        0        
C_FG        C        0.03125        0.851852        0.618189708029197        0.2        
C2        C        0.09375        0.851852        0.618189708029197        0        
C_FG        C        0.15625        0.851852        0.618189708029197        0.2        
C2        C        0.21875        0.851852        0.618189708029197        0        
C2        C        0.28125        0.851852        0.618189708029197        0        
C2        C        0.34375        0.851852        0.618189708029197        0        
C2        C        0.40625        0.851852        0.618189708029197        0        
C2        C        0.46875        0.851852        0.618189708029197        0        
C2        C        0.53125        0.851852        0.618189708029197        0        
C2        C        0.59375        0.851852        0.618189708029197        0        
C2        C        0.65625        0.851852        0.618189708029197        0        
C_FG        C        0.71875        0.851852        0.618189708029197        0.2        
C2        C        0.78125        0.851852        0.618189708029197        0        
C_FG        C        0.84375        0.851852        0.618189708029197        0.2        
C2        C        0.9062500000000001        0.851852        0.618189708029197        0        
C2        C        0.9687500000000001        0.851852        0.618189708029197        0        
C3        C        0.0        0.87037        0.618189708029197        0        
C3        C        0.0625        0.87037        0.618189708029197        0        
C3        C        0.125        0.87037        0.618189708029197        0        
C_FG        C        0.1875        0.87037        0.618189708029197        0.2        
C_FG        C        0.25        0.87037        0.618189708029197        0.2        
C_FG        C        0.3125        0.87037        0.618189708029197        0.2        
C3        C        0.375        0.87037        0.618189708029197        0        
C3        C        0.4375        0.87037        0.618189708029197        0        
C3        C        0.5        0.87037        0.618189708029197        0        
C3        C        0.5625        0.87037        0.618189708029197        0        
C3        C        0.625        0.87037        0.618189708029197        0        
C_FG        C        0.6875        0.87037        0.618189708029197        0.2        
C3        C        0.75        0.87037        0.618189708029197        0        
C3        C        0.8125        0.87037        0.618189708029197        0        
C_FG        C        0.875        0.87037        0.618189708029197        0.2        
C3        C        0.9375        0.87037        0.618189708029197        0        
C_FG        C        0.03125        0.814814        0.618189708029197        0.2        
C4        C        0.09375        0.814814        0.618189708029197        0        
C_FG        C        0.15625        0.814814        0.618189708029197        0.2        
C4        C        0.21875        0.814814        0.618189708029197        0        
C4        C        0.28125        0.814814        0.618189708029197        0        
C4        C        0.34375        0.814814        0.618189708029197        0        
C4        C        0.40625        0.814814        0.618189708029197        0        
C4        C        0.46875        0.814814        0.618189708029197        0        
C4        C        0.53125        0.814814        0.618189708029197        0        
C4        C        0.59375        0.814814        0.618189708029197        0        
C4        C        0.65625        0.814814        0.618189708029197        0        
C_FG        C        0.71875        0.814814        0.618189708029197        0.2        
C4        C        0.78125        0.814814        0.618189708029197        0        
C_FG        C        0.84375        0.814814        0.618189708029197        0.2        
C4        C        0.9062500000000001        0.814814        0.618189708029197        0        
C4        C        0.9687500000000001        0.814814        0.618189708029197        0        
C1        C        0.0        0.907408        0.618189708029197        0        
C1        C        0.0625        0.907408        0.618189708029197        0        
C1        C        0.125        0.907408        0.618189708029197        0        
C_FG        C        0.1875        0.907408        0.618189708029197        0.2        
C_FG        C        0.25        0.907408        0.618189708029197        0.2        
C_FG        C        0.3125        0.907408        0.618189708029197        0.2        
C1        C        0.375        0.907408        0.618189708029197        0        
C1        C        0.4375        0.907408        0.618189708029197        0        
C1        C        0.5        0.907408        0.618189708029197        0        
C1        C        0.5625        0.907408        0.618189708029197        0        
C1        C        0.625        0.907408        0.618189708029197        0        
C_FG        C        0.6875        0.907408        0.618189708029197        0.2        
C1        C        0.75        0.907408        0.618189708029197        0        
C1        C        0.8125        0.907408        0.618189708029197        0        
C_FG        C        0.875        0.907408        0.618189708029197        0.2        
C1        C        0.9375        0.907408        0.618189708029197        0        
C_FG        C        0.03125        0.962963        0.618189708029197        0.2        
C2        C        0.09375        0.962963        0.618189708029197        0        
C_FG        C        0.15625        0.962963        0.618189708029197        0.2        
C2        C        0.21875        0.962963        0.618189708029197        0        
C2        C        0.28125        0.962963        0.618189708029197        0        
C2        C        0.34375        0.962963        0.618189708029197        0        
C2        C        0.40625        0.962963        0.618189708029197        0        
C2        C        0.46875        0.962963        0.618189708029197        0        
C2        C        0.53125        0.962963        0.618189708029197        0        
C2        C        0.59375        0.962963        0.618189708029197        0        
C2        C        0.65625        0.962963        0.618189708029197        0        
C_FG        C        0.71875        0.962963        0.618189708029197        0.2        
C2        C        0.78125        0.962963        0.618189708029197        0        
C_FG        C        0.84375        0.962963        0.618189708029197        0.2        
C2        C        0.9062500000000001        0.962963        0.618189708029197        0        
C2        C        0.9687500000000001        0.962963        0.618189708029197        0        
C3        C        0.0        0.9814809999999999        0.618189708029197        0        
C3        C        0.0625        0.9814809999999999        0.618189708029197        0        
C3        C        0.125        0.9814809999999999        0.618189708029197        0        
C3        C        0.1875        0.9814809999999999        0.618189708029197        0        
C3        C        0.25        0.9814809999999999        0.618189708029197        0        
C3        C        0.3125        0.9814809999999999        0.618189708029197        0        
C3        C        0.375        0.9814809999999999        0.618189708029197        0        
C3        C        0.4375        0.9814809999999999        0.618189708029197        0        
C3        C        0.5        0.9814809999999999        0.618189708029197        0        
C3        C        0.5625        0.9814809999999999        0.618189708029197        0        
C3        C        0.625        0.9814809999999999        0.618189708029197        0        
C3        C        0.6875        0.9814809999999999        0.618189708029197        0        
C3        C        0.75        0.9814809999999999        0.618189708029197        0        
C3        C        0.8125        0.9814809999999999        0.618189708029197        0        
C3        C        0.875        0.9814809999999999        0.618189708029197        0        
C3        C        0.9375        0.9814809999999999        0.618189708029197        0        
C_FG        C        0.03125        0.925925        0.618189708029197        0.2        
C4        C        0.09375        0.925925        0.618189708029197        0        
C_FG        C        0.15625        0.925925        0.618189708029197        0.2        
C4        C        0.21875        0.925925        0.618189708029197        0        
C4        C        0.28125        0.925925        0.618189708029197        0        
C4        C        0.34375        0.925925        0.618189708029197        0        
C4        C        0.40625        0.925925        0.618189708029197        0        
C4        C        0.46875        0.925925        0.618189708029197        0        
C4        C        0.53125        0.925925        0.618189708029197        0        
C4        C        0.59375        0.925925        0.618189708029197        0        
C4        C        0.65625        0.925925        0.618189708029197        0        
C_FG        C        0.71875        0.925925        0.618189708029197        0.2        
C4        C        0.78125        0.925925        0.618189708029197        0        
C_FG        C        0.84375        0.925925        0.618189708029197        0.2        
C4        C        0.9062500000000001        0.925925        0.618189708029197        0        
C4        C        0.9687500000000001        0.925925        0.618189708029197        0        
O_OH        O        0.03125        0.074075        0.024540072992700723        -0.64        
O_OH        O        0.03125        0.148148        0.024540072992700723        -0.64        
O_OH        O        0.03125        0.296297        0.024540072992700723        -0.64        
O_OH        O        0.03125        0.407408        0.024540072992700723        -0.64        
O_OH        O        0.03125        0.481481        0.024540072992700723        -0.64        
O_OH        O        0.03125        0.62963        0.024540072992700723        -0.64        
O_OH        O        0.15625        0.074075        0.024540072992700723        -0.64        
O_OH        O        0.15625        0.148148        0.024540072992700723        -0.64        
O_OH        O        0.15625        0.296297        0.024540072992700723        -0.64        
O_OH        O        0.15625        0.407408        0.024540072992700723        -0.64        
O_OH        O        0.15625        0.481481        0.024540072992700723        -0.64        
O_OH        O        0.15625        0.62963        0.024540072992700723        -0.64        
O_OH        O        0.1875        0.018519        0.024540072992700723        -0.64        
O_OH        O        0.1875        0.092592        0.024540072992700723        -0.64        
O_OH        O        0.1875        0.12963        0.024540072992700723        -0.64        
O_OH        O        0.1875        0.203703        0.024540072992700723        -0.64        
O_OH        O        0.1875        0.24074099999999998        0.024540072992700723        -0.64        
O_OH        O        0.1875        0.314815        0.024540072992700723        -0.64        
O_OH        O        0.1875        0.351852        0.024540072992700723        -0.64        
O_OH        O        0.1875        0.46296300000000007        0.024540072992700723        -0.64        
O_OH        O        0.1875        0.537037        0.024540072992700723        -0.64        
O_OH        O        0.1875        0.648148        0.024540072992700723        -0.64        
O_OH        O        0.25        0.018519        0.024540072992700723        -0.64        
O_OH        O        0.25        0.092592        0.024540072992700723        -0.64        
O_OH        O        0.25        0.12963        0.024540072992700723        -0.64        
O_OH        O        0.25        0.203703        0.024540072992700723        -0.64        
O_OH        O        0.25        0.24074099999999998        0.024540072992700723        -0.64        
O_OH        O        0.25        0.314815        0.024540072992700723        -0.64        
O_OH        O        0.25        0.351852        0.024540072992700723        -0.64        
O_OH        O        0.25        0.46296300000000007        0.024540072992700723        -0.64        
O_OH        O        0.25        0.537037        0.024540072992700723        -0.64        
O_OH        O        0.25        0.648148        0.024540072992700723        -0.64        
O_OH        O        0.3125        0.018519        0.024540072992700723        -0.64        
O_OH        O        0.3125        0.092592        0.024540072992700723        -0.64        
O_OH        O        0.3125        0.12963        0.024540072992700723        -0.64        
O_OH        O        0.3125        0.203703        0.024540072992700723        -0.64        
O_OH        O        0.3125        0.24074099999999998        0.024540072992700723        -0.64        
O_OH        O        0.3125        0.314815        0.024540072992700723        -0.64        
O_OH        O        0.3125        0.351852        0.024540072992700723        -0.64        
O_OH        O        0.3125        0.46296300000000007        0.024540072992700723        -0.64        
O_OH        O        0.3125        0.537037        0.024540072992700723        -0.64        
O_OH        O        0.3125        0.648148        0.024540072992700723        -0.64        
O_OH        O        0.6875        0.018519        0.024540072992700723        -0.64        
O_OH        O        0.71875        0.074075        0.024540072992700723        -0.64        
O_OH        O        0.6875        0.092592        0.024540072992700723        -0.64        
O_OH        O        0.6875        0.12963        0.024540072992700723        -0.64        
O_OH        O        0.6875        0.203703        0.024540072992700723        -0.64        
O_OH        O        0.71875        0.148148        0.024540072992700723        -0.64        
O_OH        O        0.6875        0.24074099999999998        0.024540072992700723        -0.64        
O_OH        O        0.71875        0.296297        0.024540072992700723        -0.64        
O_OH        O        0.6875        0.314815        0.024540072992700723        -0.64        
O_OH        O        0.6875        0.351852        0.024540072992700723        -0.64        
O_OH        O        0.71875        0.407408        0.024540072992700723        -0.64        
O_OH        O        0.6875        0.46296300000000007        0.024540072992700723        -0.64        
O_OH        O        0.6875        0.537037        0.024540072992700723        -0.64        
O_OH        O        0.71875        0.481481        0.024540072992700723        -0.64        
O_OH        O        0.71875        0.62963        0.024540072992700723        -0.64        
O_OH        O        0.6875        0.648148        0.024540072992700723        -0.64        
O_OH        O        0.84375        0.074075        0.024540072992700723        -0.64        
O_OH        O        0.84375        0.148148        0.024540072992700723        -0.64        
O_OH        O        0.84375        0.296297        0.024540072992700723        -0.64        
O_OH        O        0.84375        0.407408        0.024540072992700723        -0.64        
O_OH        O        0.84375        0.481481        0.024540072992700723        -0.64        
O_OH        O        0.84375        0.62963        0.024540072992700723        -0.64        
O_OH        O        0.875        0.018519        0.024540072992700723        -0.64        
O_OH        O        0.875        0.092592        0.024540072992700723        -0.64        
O_OH        O        0.875        0.12963        0.024540072992700723        -0.64        
O_OH        O        0.875        0.203703        0.024540072992700723        -0.64        
O_OH        O        0.875        0.24074099999999998        0.024540072992700723        -0.64        
O_OH        O        0.875        0.314815        0.024540072992700723        -0.64        
O_OH        O        0.875        0.351852        0.024540072992700723        -0.64        
O_OH        O        0.875        0.46296300000000007        0.024540072992700723        -0.64        
O_OH        O        0.875        0.537037        0.024540072992700723        -0.64        
O_OH        O        0.875        0.648148        0.024540072992700723        -0.64        
O_OH        O        0.1875        0.685186        0.024540072992700723        -0.64        
O_OH        O        0.25        0.685186        0.024540072992700723        -0.64        
O_OH        O        0.3125        0.685186        0.024540072992700723        -0.64        
O_OH        O        0.6875        0.685186        0.024540072992700723        -0.64        
O_OH        O        0.875        0.685186        0.024540072992700723        -0.64        
O_OH        O        0.03125        0.740741        0.024540072992700723        -0.64        
O_OH        O        0.15625        0.740741        0.024540072992700723        -0.64        
O_OH        O        0.71875        0.740741        0.024540072992700723        -0.64        
O_OH        O        0.84375        0.740741        0.024540072992700723        -0.64        
O_OH        O        0.1875        0.759259        0.024540072992700723        -0.64        
O_OH        O        0.25        0.759259        0.024540072992700723        -0.64        
O_OH        O        0.3125        0.759259        0.024540072992700723        -0.64        
O_OH        O        0.6875        0.759259        0.024540072992700723        -0.64        
O_OH        O        0.875        0.759259        0.024540072992700723        -0.64        
O_OH        O        0.03125        0.703703        0.024540072992700723        -0.64        
O_OH        O        0.15625        0.703703        0.024540072992700723        -0.64        
O_OH        O        0.71875        0.703703        0.024540072992700723        -0.64        
O_OH        O        0.84375        0.703703        0.024540072992700723        -0.64        
O_OH        O        0.1875        0.796297        0.024540072992700723        -0.64        
O_OH        O        0.25        0.796297        0.024540072992700723        -0.64        
O_OH        O        0.3125        0.796297        0.024540072992700723        -0.64        
O_OH        O        0.6875        0.796297        0.024540072992700723        -0.64        
O_OH        O        0.875        0.796297        0.024540072992700723        -0.64        
O_OH        O        0.03125        0.851852        0.024540072992700723        -0.64        
O_OH        O        0.15625        0.851852        0.024540072992700723        -0.64        
O_OH        O        0.71875        0.851852        0.024540072992700723        -0.64        
O_OH        O        0.84375        0.851852        0.024540072992700723        -0.64        
O_OH        O        0.1875        0.87037        0.024540072992700723        -0.64        
O_OH        O        0.25        0.87037        0.024540072992700723        -0.64        
O_OH        O        0.3125        0.87037        0.024540072992700723        -0.64        
O_OH        O        0.6875        0.87037        0.024540072992700723        -0.64        
O_OH        O        0.875        0.87037        0.024540072992700723        -0.64        
O_OH        O        0.03125        0.814814        0.024540072992700723        -0.64        
O_OH        O        0.15625        0.814814        0.024540072992700723        -0.64        
O_OH        O        0.71875        0.814814        0.024540072992700723        -0.64        
O_OH        O        0.84375        0.814814        0.024540072992700723        -0.64        
O_OH        O        0.1875        0.907408        0.024540072992700723        -0.64        
O_OH        O        0.25        0.907408        0.024540072992700723        -0.64        
O_OH        O        0.3125        0.907408        0.024540072992700723        -0.64        
O_OH        O        0.6875        0.907408        0.024540072992700723        -0.64        
O_OH        O        0.875        0.907408        0.024540072992700723        -0.64        
O_OH        O        0.03125        0.962963        0.024540072992700723        -0.64        
O_OH        O        0.15625        0.962963        0.024540072992700723        -0.64        
O_OH        O        0.71875        0.962963        0.024540072992700723        -0.64        
O_OH        O        0.84375        0.962963        0.024540072992700723        -0.64        
O_OH        O        0.03125        0.925925        0.024540072992700723        -0.64        
O_OH        O        0.15625        0.925925        0.024540072992700723        -0.64        
O_OH        O        0.71875        0.925925        0.024540072992700723        -0.64        
O_OH        O        0.84375        0.925925        0.024540072992700723        -0.64        
O_OH        O        0.03125        0.074075        0.7227882481751825        -0.64        
O_OH        O        0.03125        0.148148        0.7227882481751825        -0.64        
O_OH        O        0.03125        0.296297        0.7227882481751825        -0.64        
O_OH        O        0.03125        0.407408        0.7227882481751825        -0.64        
O_OH        O        0.03125        0.481481        0.7227882481751825        -0.64        
O_OH        O        0.03125        0.62963        0.7227882481751825        -0.64        
O_OH        O        0.15625        0.074075        0.7227882481751825        -0.64        
O_OH        O        0.15625        0.148148        0.7227882481751825        -0.64        
O_OH        O        0.15625        0.296297        0.7227882481751825        -0.64        
O_OH        O        0.15625        0.407408        0.7227882481751825        -0.64        
O_OH        O        0.15625        0.481481        0.7227882481751825        -0.64        
O_OH        O        0.15625        0.62963        0.7227882481751825        -0.64        
O_OH        O        0.1875        0.018519        0.7227882481751825        -0.64        
O_OH        O        0.1875        0.092592        0.7227882481751825        -0.64        
O_OH        O        0.1875        0.12963        0.7227882481751825        -0.64        
O_OH        O        0.1875        0.203703        0.7227882481751825        -0.64        
O_OH        O        0.1875        0.24074099999999998        0.7227882481751825        -0.64        
O_OH        O        0.1875        0.314815        0.7227882481751825        -0.64        
O_OH        O        0.1875        0.351852        0.7227882481751825        -0.64        
O_OH        O        0.1875        0.46296300000000007        0.7227882481751825        -0.64        
O_OH        O        0.1875        0.537037        0.7227882481751825        -0.64        
O_OH        O        0.1875        0.648148        0.7227882481751825        -0.64        
O_OH        O        0.25        0.018519        0.7227882481751825        -0.64        
O_OH        O        0.25        0.092592        0.7227882481751825        -0.64        
O_OH        O        0.25        0.12963        0.7227882481751825        -0.64        
O_OH        O        0.25        0.203703        0.7227882481751825        -0.64        
O_OH        O        0.25        0.24074099999999998        0.7227882481751825        -0.64        
O_OH        O        0.25        0.314815        0.7227882481751825        -0.64        
O_OH        O        0.25        0.351852        0.7227882481751825        -0.64        
O_OH        O        0.25        0.46296300000000007        0.7227882481751825        -0.64        
O_OH        O        0.25        0.537037        0.7227882481751825        -0.64        
O_OH        O        0.25        0.648148        0.7227882481751825        -0.64        
O_OH        O        0.3125        0.018519        0.7227882481751825        -0.64        
O_OH        O        0.3125        0.092592        0.7227882481751825        -0.64        
O_OH        O        0.3125        0.12963        0.7227882481751825        -0.64        
O_OH        O        0.3125        0.203703        0.7227882481751825        -0.64        
O_OH        O        0.3125        0.24074099999999998        0.7227882481751825        -0.64        
O_OH        O        0.3125        0.314815        0.7227882481751825        -0.64        
O_OH        O        0.3125        0.351852        0.7227882481751825        -0.64        
O_OH        O        0.3125        0.46296300000000007        0.7227882481751825        -0.64        
O_OH        O        0.3125        0.537037        0.7227882481751825        -0.64        
O_OH        O        0.3125        0.648148        0.7227882481751825        -0.64        
O_OH        O        0.6875        0.018519        0.7227882481751825        -0.64        
O_OH        O        0.71875        0.074075        0.7227882481751825        -0.64        
O_OH        O        0.6875        0.092592        0.7227882481751825        -0.64        
O_OH        O        0.6875        0.12963        0.7227882481751825        -0.64        
O_OH        O        0.6875        0.203703        0.7227882481751825        -0.64        
O_OH        O        0.71875        0.148148        0.7227882481751825        -0.64        
O_OH        O        0.6875        0.24074099999999998        0.7227882481751825        -0.64        
O_OH        O        0.71875        0.296297        0.7227882481751825        -0.64        
O_OH        O        0.6875        0.314815        0.7227882481751825        -0.64        
O_OH        O        0.6875        0.351852        0.7227882481751825        -0.64        
O_OH        O        0.71875        0.407408        0.7227882481751825        -0.64        
O_OH        O        0.6875        0.46296300000000007        0.7227882481751825        -0.64        
O_OH        O        0.6875        0.537037        0.7227882481751825        -0.64        
O_OH        O        0.71875        0.481481        0.7227882481751825        -0.64        
O_OH        O        0.71875        0.62963        0.7227882481751825        -0.64        
O_OH        O        0.6875        0.648148        0.7227882481751825        -0.64        
O_OH        O        0.84375        0.074075        0.7227882481751825        -0.64        
O_OH        O        0.84375        0.148148        0.7227882481751825        -0.64        
O_OH        O        0.84375        0.296297        0.7227882481751825        -0.64        
O_OH        O        0.84375        0.407408        0.7227882481751825        -0.64        
O_OH        O        0.84375        0.481481        0.7227882481751825        -0.64        
O_OH        O        0.84375        0.62963        0.7227882481751825        -0.64        
O_OH        O        0.875        0.018519        0.7227882481751825        -0.64        
O_OH        O        0.875        0.092592        0.7227882481751825        -0.64        
O_OH        O        0.875        0.12963        0.7227882481751825        -0.64        
O_OH        O        0.875        0.203703        0.7227882481751825        -0.64        
O_OH        O        0.875        0.24074099999999998        0.7227882481751825        -0.64        
O_OH        O        0.875        0.314815        0.7227882481751825        -0.64        
O_OH        O        0.875        0.351852        0.7227882481751825        -0.64        
O_OH        O        0.875        0.46296300000000007        0.7227882481751825        -0.64        
O_OH        O        0.875        0.537037        0.7227882481751825        -0.64        
O_OH        O        0.875        0.648148        0.7227882481751825        -0.64        
O_OH        O        0.1875        0.685186        0.7227882481751825        -0.64        
O_OH        O        0.25        0.685186        0.7227882481751825        -0.64        
O_OH        O        0.3125        0.685186        0.7227882481751825        -0.64        
O_OH        O        0.6875        0.685186        0.7227882481751825        -0.64        
O_OH        O        0.875        0.685186        0.7227882481751825        -0.64        
O_OH        O        0.03125        0.740741        0.7227882481751825        -0.64        
O_OH        O        0.15625        0.740741        0.7227882481751825        -0.64        
O_OH        O        0.71875        0.740741        0.7227882481751825        -0.64        
O_OH        O        0.84375        0.740741        0.7227882481751825        -0.64        
O_OH        O        0.1875        0.759259        0.7227882481751825        -0.64        
O_OH        O        0.25        0.759259        0.7227882481751825        -0.64        
O_OH        O        0.3125        0.759259        0.7227882481751825        -0.64        
O_OH        O        0.6875        0.759259        0.7227882481751825        -0.64        
O_OH        O        0.875        0.759259        0.7227882481751825        -0.64        
O_OH        O        0.03125        0.703703        0.7227882481751825        -0.64        
O_OH        O        0.15625        0.703703        0.7227882481751825        -0.64        
O_OH        O        0.71875        0.703703        0.7227882481751825        -0.64        
O_OH        O        0.84375        0.703703        0.7227882481751825        -0.64        
O_OH        O        0.1875        0.796297        0.7227882481751825        -0.64        
O_OH        O        0.25        0.796297        0.7227882481751825        -0.64        
O_OH        O        0.3125        0.796297        0.7227882481751825        -0.64        
O_OH        O        0.6875        0.796297        0.7227882481751825        -0.64        
O_OH        O        0.875        0.796297        0.7227882481751825        -0.64        
O_OH        O        0.03125        0.851852        0.7227882481751825        -0.64        
O_OH        O        0.15625        0.851852        0.7227882481751825        -0.64        
O_OH        O        0.71875        0.851852        0.7227882481751825        -0.64        
O_OH        O        0.84375        0.851852        0.7227882481751825        -0.64        
O_OH        O        0.1875        0.87037        0.7227882481751825        -0.64        
O_OH        O        0.25        0.87037        0.7227882481751825        -0.64        
O_OH        O        0.3125        0.87037        0.7227882481751825        -0.64        
O_OH        O        0.6875        0.87037        0.7227882481751825        -0.64        
O_OH        O        0.875        0.87037        0.7227882481751825        -0.64        
O_OH        O        0.03125        0.814814        0.7227882481751825        -0.64        
O_OH        O        0.15625        0.814814        0.7227882481751825        -0.64        
O_OH        O        0.71875        0.814814        0.7227882481751825        -0.64        
O_OH        O        0.84375        0.814814        0.7227882481751825        -0.64        
O_OH        O        0.1875        0.907408        0.7227882481751825        -0.64        
O_OH        O        0.25        0.907408        0.7227882481751825        -0.64        
O_OH        O        0.3125        0.907408        0.7227882481751825        -0.64        
O_OH        O        0.6875        0.907408        0.7227882481751825        -0.64        
O_OH        O        0.875        0.907408        0.7227882481751825        -0.64        
O_OH        O        0.03125        0.962963        0.7227882481751825        -0.64        
O_OH        O        0.15625        0.962963        0.7227882481751825        -0.64        
O_OH        O        0.71875        0.962963        0.7227882481751825        -0.64        
O_OH        O        0.84375        0.962963        0.7227882481751825        -0.64        
O_OH        O        0.03125        0.925925        0.7227882481751825        -0.64        
O_OH        O        0.15625        0.925925        0.7227882481751825        -0.64        
O_OH        O        0.71875        0.925925        0.7227882481751825        -0.64        
O_OH        O        0.84375        0.925925        0.7227882481751825        -0.64        
H_OH        H        0.011042093053950347        0.08501519071665709        0.0        0.44        
H_OH        H        0.054057946747586905        0.1494951181490098        0.0        0.44        
H_OH        H        0.04687480910168945        0.31340743392708403        0.0        0.44        
H_OH        H        0.020951406111143583        0.42834325586612965        0.0        0.44        
H_OH        H        0.031003572658503818        0.5049330862916961        0.0        0.44        
H_OH        H        0.051791474243565616        0.6398946115959653        0.0        0.44        
H_OH        H        0.16218932117360813        0.09672200649563718        0.0        0.44        
H_OH        H        0.17839583098606562        0.15390856576752593        0.0        0.44        
H_OH        H        0.14481256012802396        0.3165996182840192        0.0        0.44        
H_OH        H        0.14684288814095278        0.42878086543349697        0.0        0.44        
H_OH        H        0.1392579349898943        0.4971579551265618        0.0        0.44        
H_OH        H        0.14341137766506387        0.6490296689751438        0.0        0.44        
H_OH        H        0.16467709195535443        0.01956552869675784        0.0        0.44        
H_OH        H        0.1933641439406999        0.11525964428531216        0.0        0.44        
H_OH        H        0.1932289417803884        0.15233405285483864        0.0        0.44        
H_OH        H        0.20425594722083945        0.219645554919719        0.0        0.44        
H_OH        H        0.17037161866387981        0.256260825252241        0.0        0.44        
H_OH        H        0.16551860211943797        0.3212049380192783        0.0        0.44        
H_OH        H        0.17861818343044414        0.37346043445790367        0.0        0.44        
H_OH        H        0.16741034713784966        0.4741303654991655        0.0        0.44        
H_OH        H        0.18654366740650333        0.5604698929066086        0.0        0.44        
H_OH        H        0.19390848107278505        0.6706598073378377        0.0        0.44        
H_OH        H        0.2604108233888768        0.03939567164226281        0.0        0.44        
H_OH        H        0.2530975210740563        0.11582887611470491        0.0        0.44        
H_OH        H        0.2353966906122024        0.1476663460805089        0.0        0.44        
H_OH        H        0.26843951712386427        0.21754916546102993        0.0        0.44        
H_OH        H        0.24494217733381035        0.26361245662450705        0.0        0.44        
H_OH        H        0.27214739392721704        0.32056922955599604        0.0        0.44        
H_OH        H        0.2276544401072742        0.35673245004077        0.0        0.44        
H_OH        H        0.2702574767520388        0.47380614363347906        0.0        0.44        
H_OH        H        0.24004113171376318        0.558144770249129        0.0        0.44        
H_OH        H        0.2694030752358292        0.6605289044986392        0.0        0.44        
H_OH        H        0.30147530865685945        0.039060844772317325        0.0        0.44        
H_OH        H        0.3345336621603504        0.09878932712363364        0.0        0.44        
H_OH        H        0.3327295776768723        0.1405278996153408        0.0        0.44        
H_OH        H        0.31728840516409695        0.22663549440129163        0.0        0.44        
H_OH        H        0.3003629990585901        0.26061096174599824        0.0        0.44        
H_OH        H        0.3350946439004489        0.31828218588064855        0.0        0.44        
H_OH        H        0.30823284487388586        0.3748927032251533        0.0        0.44        
H_OH        H        0.3294356831193724        0.4787041234971084        0.0        0.44        
H_OH        H        0.2994617286727951        0.5562958243422202        0.0        0.44        
H_OH        H        0.28975510233235413        0.6503483732053329        0.0        0.44        
H_OH        H        0.6770290286484456        0.039363944307902285        0.0        0.44        
H_OH        H        0.7290620689488679        0.0950032640034772        0.0        0.44        
H_OH        H        0.7032346070341668        0.10959606148227131        0.0        0.44        
H_OH        H        0.7090928239107395        0.13729002677275964        0.0        0.44        
H_OH        H        0.686690604152674        0.22714172669044466        0.0        0.44        
H_OH        H        0.7047041385196057        0.16664506085026518        0.0        0.44        
H_OH        H        0.7085565741815909        0.24983934240686936        0.0        0.44        
H_OH        H        0.7329489358603741        0.3146704753611291        0.0        0.44        
H_OH        H        0.6769340522178265        0.33560937344795266        0.0        0.44        
H_OH        H        0.7100927229037235        0.3553323538432027        0.0        0.44        
H_OH        H        0.741444540414333        0.41010117994514284        0.0        0.44        
H_OH        H        0.6743741063850865        0.48215899295095227        0.0        0.44        
H_OH        H        0.6900081059289519        0.5603486836251486        0.0        0.44        
H_OH        H        0.7337621579740472        0.4991600472322239        0.0        0.44        
H_OH        H        0.7340473795206426        0.6470494626324653        0.0        0.44        
H_OH        H        0.7064830672764676        0.6611970819649263        0.0        0.44        
H_OH        H        0.8576662159420511        0.09267505033374956        0.0        0.44        
H_OH        H        0.8443423289627118        0.17159356635691217        0.0        0.44        
H_OH        H        0.8637794956116164        0.30757767522953877        0.0        0.44        
H_OH        H        0.8299164642362219        0.42607293849580075        0.0        0.44        
H_OH        H        0.8343528368848426        0.5028584774537336        0.0        0.44        
H_OH        H        0.8554282761060865        0.6497876053093798        0.0        0.44        
H_OH        H        0.8975838339931246        0.022059633316685576        0.0        0.44        
H_OH        H        0.8903245646694173        0.10998626150601568        0.0        0.44        
H_OH        H        0.8662496172219327        0.15129487606417066        0.0        0.44        
H_OH        H        0.8933486978357309        0.21767574185061336        0.0        0.44        
H_OH        H        0.8973049479439361        0.2458134653616444        0.0        0.44        
H_OH        H        0.877728136384208        0.33810062523032003        0.0        0.44        
H_OH        H        0.8726055870313522        0.37517627977622026        0.0        0.44        
H_OH        H        0.8775694423447394        0.48626764252739013        0.0        0.44        
H_OH        H        0.8976051660336412        0.5404311327591822        0.0        0.44        
H_OH        H        0.8841292258189932        0.6696474903804566        0.0        0.44        
H_OH        H        0.2098865782984611        0.6898641432724041        0.0        0.44        
H_OH        H        0.2451595550550912        0.7081069772883849        0.0        0.44        
H_OH        H        0.3037853292126966        0.7068660413906681        0.0        0.44        
H_OH        H        0.7083116909411173        0.6948599579303635        0.0        0.44        
H_OH        H        0.8959090368552124        0.6946361401400668        0.0        0.44        
H_OH        H        0.015086069397405958        0.75731522533781        0.0        0.44        
H_OH        H        0.17328051476476908        0.7563739214019932        0.0        0.44        
H_OH        H        0.7164867072417402        0.764079073483614        0.0        0.44        
H_OH        H        0.8471036475449156        0.7639403752166372        0.0        0.44        
H_OH        H        0.16837361807307613        0.7720856296544786        0.0        0.44        
H_OH        H        0.22943849286770082        0.7694812524319389        0.0        0.44        
H_OH        H        0.3124369834199149        0.7827123615244118        0.0        0.44        
H_OH        H        0.6987980684319391        0.7796436960248754        0.0        0.44        
H_OH        H        0.8975645958909867        0.762926626499519        0.0        0.44        
H_OH        H        0.02290994009816664        0.7255377783407693        0.0        0.44        
H_OH        H        0.1790715322938002        0.7047806842583516        0.0        0.44        
H_OH        H        0.7085373392344182        0.7246825749799458        0.0        0.44        
H_OH        H        0.8349647406240044        0.7253529953175362        0.0        0.44        
H_OH        H        0.18719893766414944        0.8197484141705732        0.0        0.44        
H_OH        H        0.25280832742598547        0.8195725758308781        0.0        0.44        
H_OH        H        0.33075531859181123        0.8103980587468745        0.0        0.44        
H_OH        H        0.665872162395645        0.8038522037297184        0.0        0.44        
H_OH        H        0.8749226918108721        0.8197503164648722        0.0        0.44        
H_OH        H        0.04764691776274204        0.8681832481407454        0.0        0.44        
H_OH        H        0.16879371499933987        0.8714539432206146        0.0        0.44        
H_OH        H        0.7348546948996367        0.8684868867772523        0.0        0.44        
H_OH        H        0.8640241548993501        0.8626622416521517        0.0        0.44        
H_OH        H        0.20810586557901514        0.8804976782682894        0.0        0.44        
H_OH        H        0.2727144015816194        0.8728805215056746        0.0        0.44        
H_OH        H        0.3175381551511714        0.8932460310503524        0.0        0.44        
H_OH        H        0.7088305819019124        0.8787687633088229        0.0        0.44        
H_OH        H        0.852819936790721        0.8759900474603463        0.0        0.44        
H_OH        H        0.008793834303639485        0.819126341654349        0.0        0.44        
H_OH        H        0.13354491731316376        0.8174118448842612        0.0        0.44        
H_OH        H        0.7397282213411497        0.824101139209822        0.0        0.44        
H_OH        H        0.8234819674984538        0.8256363344402763        0.0        0.44        
H_OH        H        0.1808304270786986        0.9298397363679893        0.0        0.44        
H_OH        H        0.24164903944043378        0.9292383869058849        0.0        0.44        
H_OH        H        0.294927674000583        0.922395634800626        0.0        0.44        
H_OH        H        0.7088379771703488        0.9157869418632777        0.0        0.44        
H_OH        H        0.8823780798999729        0.9296046961252407        0.0        0.44        
H_OH        H        0.05393120199800167        0.9657721085521531        0.0        0.44        
H_OH        H        0.15016067480914186        0.9855679834109996        0.0        0.44        
H_OH        H        0.7130438252480163        0.9856730945907903        0.0        0.44        
H_OH        H        0.8211063602848027        0.9660751355156907        0.0        0.44        
H_OH        H        0.053343187468995225        0.9318948057023859        0.0        0.44        
H_OH        H        0.15878984892527745        0.9492330611997404        0.0        0.44        
H_OH        H        0.7270492871915704        0.9477761453867093        0.0        0.44        
H_OH        H        0.8220066168801077        0.9331221912451838        0.0        0.44        
H_OH        H        0.043534772762128277        0.0938490222356762        0.7473283211678833        0.44        
H_OH        H        0.05241190958551209        0.1569850223488443        0.7473283211678833        0.44        
H_OH        H        0.05279258593588813        0.30410468105789645        0.7473283211678833        0.44        
H_OH        H        0.014049658052927275        0.4228437206057664        0.7473283211678833        0.44        
H_OH        H        0.053996166277697454        0.48366750870377045        0.7473283211678833        0.44        
H_OH        H        0.045072949293543864        0.648303202707486        0.7473283211678833        0.44        
H_OH        H        0.13955369345083352        0.09008336471020564        0.7473283211678833        0.44        
H_OH        H        0.17097175461798647        0.16608257815758654        0.7473283211678833        0.44        
H_OH        H        0.17084820876906215        0.3143376972231133        0.7473283211678833        0.44        
H_OH        H        0.1788845543280401        0.4105890276289495        0.7473283211678833        0.44        
H_OH        H        0.15648338851414437        0.5049332268661197        0.7473283211678833        0.44        
H_OH        H        0.17881467522725966        0.6332971120397265        0.7473283211678833        0.44        
H_OH        H        0.20130349173773687        0.0372073660199658        0.7473283211678833        0.44        
H_OH        H        0.18797815106147986        0.11604031330480333        0.7473283211678833        0.44        
H_OH        H        0.20031543612424668        0.14904581950460807        0.7473283211678833        0.44        
H_OH        H        0.18498539674619352        0.22701394592170226        0.7473283211678833        0.44        
H_OH        H        0.1744681910711226        0.26000443359280184        0.7473283211678833        0.44        
H_OH        H        0.2102376959186899        0.3170924672003983        0.7473283211678833        0.44        
H_OH        H        0.16869190379110088        0.3651654297531962        0.7473283211678833        0.44        
H_OH        H        0.19624443354667478        0.4846304074866611        0.7473283211678833        0.44        
H_OH        H        0.20786355128374293        0.5476686786723111        0.7473283211678833        0.44        
H_OH        H        0.18760448459091228        0.6716012054601852        0.7473283211678833        0.44        
H_OH        H        0.27104470134360925        0.02764624748608002        0.7473283211678833        0.44        
H_OH        H        0.22789286449516413        0.09850713591218074        0.7473283211678833        0.44        
H_OH        H        0.27230385382968875        0.13470753320535242        0.7473283211678833        0.44        
H_OH        H        0.2660715601321013        0.2203716260208148        0.7473283211678833        0.44        
H_OH        H        0.26605581128908806        0.2574256139340436        0.7473283211678833        0.44        
H_OH        H        0.23598719084283784        0.3333384625866179        0.7473283211678833        0.44        
H_OH        H        0.27259005370482303        0.3553505664276659        0.7473283211678833        0.44        
H_OH        H        0.2724746895454559        0.46717240902704205        0.7473283211678833        0.44        
H_OH        H        0.2311223353614758        0.5502462512704575        0.7473283211678833        0.44        
H_OH        H        0.268410557091506        0.6620347208247922        0.7473283211678833        0.44        
H_OH        H        0.32336102104515446        0.0391525299146096        0.7473283211678833        0.44        
H_OH        H        0.33124667230823157        0.1059964225261109        0.7473283211678833        0.44        
H_OH        H        0.2921004673578637        0.14018873104060242        0.7473283211678833        0.44        
H_OH        H        0.3352525177180033        0.205818716757531        0.7473283211678833        0.44        
H_OH        H        0.3303116867878668        0.255427831123337        0.7473283211678833        0.44        
H_OH        H        0.2949872404845051        0.32987593525344583        0.7473283211678833        0.44        
H_OH        H        0.2962726608684846        0.3683607954078399        0.7473283211678833        0.44        
H_OH        H        0.332057799156922        0.47508461714267936        0.7473283211678833        0.44        
H_OH        H        0.31280255245754623        0.5604883939595299        0.7473283211678833        0.44        
H_OH        H        0.30034780737447186        0.6680081734986274        0.7473283211678833        0.44        
H_OH        H        0.707298376421827        0.030221773789104192        0.7473283211678833        0.44        
H_OH        H        0.7152259922668921        0.09724774605370311        0.7473283211678833        0.44        
H_OH        H        0.6954482526629855        0.11458025843013239        0.7473283211678833        0.44        
H_OH        H        0.6646547969755079        0.12977885278490403        0.7473283211678833        0.44        
H_OH        H        0.6663009421259625        0.21244568165103292        0.7473283211678833        0.44        
H_OH        H        0.7038903871161554        0.16596235338777782        0.7473283211678833        0.44        
H_OH        H        0.6653744745193004        0.24658322030238042        0.7473283211678833        0.44        
H_OH        H        0.7219197586033607        0.3195236069254212        0.7473283211678833        0.44        
H_OH        H        0.7103406555068046        0.315306035460394        0.7473283211678833        0.44        
H_OH        H        0.7032574464283061        0.36883375691565334        0.7473283211678833        0.44        
H_OH        H        0.6959696703261944        0.40918046242117        0.7473283211678833        0.44        
H_OH        H        0.705220963910391        0.4777650416636729        0.7473283211678833        0.44        
H_OH        H        0.7083716515508688        0.5465738416260618        0.7473283211678833        0.44        
H_OH        H        0.7142399813345737        0.5044728989964467        0.7473283211678833        0.44        
H_OH        H        0.7021252244681282        0.6457166323288732        0.7473283211678833        0.44        
H_OH        H        0.7099695857970848        0.6523860273821364        0.7473283211678833        0.44        
H_OH        H        0.8653144622726543        0.08181877267104307        0.7473283211678833        0.44        
H_OH        H        0.849240532122612        0.17091405066593804        0.7473283211678833        0.44        
H_OH        H        0.820920820436776        0.2971877737336436        0.7473283211678833        0.44        
H_OH        H        0.8270925754614634        0.4234589975459774        0.7473283211678833        0.44        
H_OH        H        0.8219276795763691        0.48842183482146456        0.7473283211678833        0.44        
H_OH        H        0.8548760619777495        0.650114161832946        0.7473283211678833        0.44        
H_OH        H        0.8525987188407188        0.02312236949011921        0.7473283211678833        0.44        
H_OH        H        0.8631024034355675        0.11261397790289415        0.7473283211678833        0.44        
H_OH        H        0.8911821609666049        0.14618546650908384        0.7473283211678833        0.44        
H_OH        H        0.8521755618692006        0.2047137483453414        0.7473283211678833        0.44        
H_OH        H        0.896996308468148        0.24707663098513924        0.7473283211678833        0.44        
H_OH        H        0.8965330451896627        0.3226503694991217        0.7473283211678833        0.44        
H_OH        H        0.8524337842246685        0.3555091075770874        0.7473283211678833        0.44        
H_OH        H        0.8783375596724708        0.48616482022239826        0.7473283211678833        0.44        
H_OH        H        0.8608196912876295        0.5554256302508397        0.7473283211678833        0.44        
H_OH        H        0.8524143589243155        0.651676464032362        0.7473283211678833        0.44        
H_OH        H        0.19419491422393195        0.7076097789651441        0.7473283211678833        0.44        
H_OH        H        0.26587549890093837        0.702051478937015        0.7473283211678833        0.44        
H_OH        H        0.29544409807667876        0.7007897244838506        0.7473283211678833        0.44        
H_OH        H        0.7089251254585017        0.6933271918930154        0.7473283211678833        0.44        
H_OH        H        0.8905450851819223        0.7023727948036921        0.7473283211678833        0.44        
H_OH        H        0.04033417462211882        0.7622605925154123        0.7473283211678833        0.44        
H_OH        H        0.15644534191389498        0.7641935933785003        0.7473283211678833        0.44        
H_OH        H        0.7293192227016934        0.7615336193459982        0.7473283211678833        0.44        
H_OH        H        0.8276078032230867        0.7573375339025878        0.7473283211678833        0.44        
H_OH        H        0.19300996390574338        0.7820201023161301        0.7473283211678833        0.44        
H_OH        H        0.23290872976406568        0.7748218845063015        0.7473283211678833        0.44        
H_OH        H        0.2897580168936376        0.7614908970426585        0.7473283211678833        0.44        
H_OH        H        0.7092474221512561        0.766443318352117        0.7473283211678833        0.44        
H_OH        H        0.8546211815425895        0.7698598034476105        0.7473283211678833        0.44        
H_OH        H        0.01503499353647023        0.7202245616177338        0.7473283211678833        0.44        
H_OH        H        0.13815252012791476        0.7180168778795855        0.7473283211678833        0.44        
H_OH        H        0.739333944439399        0.7138775504494241        0.7473283211678833        0.44        
H_OH        H        0.8507342788438627        0.72603356592624        0.7473283211678833        0.44        
H_OH        H        0.2070128526012504        0.8084947200591686        0.7473283211678833        0.44        
H_OH        H        0.27004477321880893        0.8075490391607287        0.7473283211678833        0.44        
H_OH        H        0.33502794753954296        0.8001948392989101        0.7473283211678833        0.44        
H_OH        H        0.6797307771329436        0.8183525915591895        0.7473283211678833        0.44        
H_OH        H        0.863028567534368        0.8162725397158209        0.7473283211678833        0.44        
H_OH        H        0.009578259109797154        0.859273429499007        0.7473283211678833        0.44        
H_OH        H        0.17623987342876155        0.8632065048512934        0.7473283211678833        0.44        
H_OH        H        0.6959369889589726        0.8531054882407074        0.7473283211678833        0.44        
H_OH        H        0.8436950915279404        0.8753053830074782        0.7473283211678833        0.44        
H_OH        H        0.16577580053765342        0.8776279878583365        0.7473283211678833        0.44        
H_OH        H        0.25413005275145506        0.8934370187586005        0.7473283211678833        0.44        
H_OH        H        0.33507414621172865        0.8739751563201067        0.7473283211678833        0.44        
H_OH        H        0.6924313889848634        0.8932705370081697        0.7473283211678833        0.44        
H_OH        H        0.855761642468677        0.8830189088551617        0.7473283211678833        0.44        
H_OH        H        0.05263917355843692        0.823054221550453        0.7473283211678833        0.44        
H_OH        H        0.16106076227278043        0.8377415624295571        0.7473283211678833        0.44        
H_OH        H        0.7241388632395712        0.8376056387097187        0.7473283211678833        0.44        
H_OH        H        0.8559356471988996        0.8346525579203872        0.7473283211678833        0.44        
H_OH        H        0.20730049405379938        0.9191069972801429        0.7473283211678833        0.44        
H_OH        H        0.26540506997141183        0.9247271527599519        0.7473283211678833        0.44        
H_OH        H        0.30636360475045793        0.9299995644188489        0.7473283211678833        0.44        
H_OH        H        0.6777673598805914        0.9286266927482183        0.7473283211678833        0.44        
H_OH        H        0.8523589811076808        0.910540166892667        0.7473283211678833        0.44        
H_OH        H        0.025248469170597202        0.9855927153367556        0.7473283211678833        0.44        
H_OH        H        0.17568759346175294        0.9752867088398457        0.7473283211678833        0.44        
H_OH        H        0.7020329922041774        0.9789485794371955        0.7473283211678833        0.44        
H_OH        H        0.8655759166525708        0.9698919072612849        0.7473283211678833        0.44        
H_OH        H        0.0294407218559786        0.9493047855319653        0.7473283211678833        0.44        
H_OH        H        0.16605070676457784        0.9471106476795673        0.7473283211678833        0.44        
H_OH        H        0.7190194489046677        0.949376819435498        0.7473283211678833        0.44        
H_OH        H        0.8646557641442786        0.9353827679552432        0.7473283211678833        0.44        
