data_graphite_ortho

_audit_creation_method RASPA-1.0
_audit_creation_date 2012-2-3
_audit_author_name 'David Dubbeldam'

_cell_length_a    22.14    
_cell_length_b    34.08    
_cell_length_c    28.9    
_cell_angle_alpha 90
_cell_angle_beta  90
_cell_angle_gamma 90
_cell_volume      21805.95      

_symmetry_cell_setting          triclinic
_symmetry_space_group_name_Hall 'P 1'
_symmetry_space_group_name_H-M  'P 1'
_symmetry_Int_Tables_number     1

_symmetry_equiv_pos_as_xyz 'x,y,z'

loop_
_atom_site_label
_atom_site_type_symbol
_atom_site_fract_x
_atom_site_fract_y
_atom_site_fract_z
_atom_site_charge
C1        C        0.0        0.020834        0.0        0        
C2        C        0.055556        0.083334        0.0        0        
C3        C        0.0        0.104166        0.0        0        
C4        C        0.055556        0.041666        0.0        0        
C1        C        0.0        0.145834        0.0        0        
C2        C        0.055556        0.208334        0.0        0        
C3        C        0.0        0.229166        0.0        0        
C4        C        0.055556        0.166666        0.0        0        
C1        C        0.0        0.270834        0.0        0        
C2        C        0.055556        0.333334        0.0        0        
C3        C        0.0        0.354166        0.0        0        
C4        C        0.055556        0.291666        0.0        0        
C1        C        0.0        0.395833        0.0        0        
C2        C        0.055556        0.458334        0.0        0        
C3        C        0.0        0.479166        0.0        0        
C4        C        0.055556        0.416666        0.0        0        
C1        C        0.0        0.520834        0.0        0        
C2        C        0.055556        0.583334        0.0        0        
C3        C        0.0        0.604166        0.0        0        
C4        C        0.055556        0.541666        0.0        0        
C1        C        0.0        0.645834        0.0        0        
C2        C        0.055556        0.708334        0.0        0        
C3        C        0.0        0.729166        0.0        0        
C4        C        0.055556        0.666666        0.0        0        
C1        C        0.11111100000000002        0.020834        0.0        0        
C2        C        0.166667        0.083334        0.0        0        
C3        C        0.11111100000000002        0.104166        0.0        0        
C4        C        0.166667        0.041666        0.0        0        
C1        C        0.11111100000000002        0.145834        0.0        0        
C2        C        0.166667        0.208334        0.0        0        
C3        C        0.11111100000000002        0.229166        0.0        0        
C4        C        0.166667        0.166666        0.0        0        
C1        C        0.11111100000000002        0.270834        0.0        0        
C2        C        0.166667        0.333334        0.0        0        
C3        C        0.11111100000000002        0.354166        0.0        0        
C4        C        0.166667        0.291666        0.0        0        
C1        C        0.11111100000000002        0.395833        0.0        0        
C2        C        0.166667        0.458334        0.0        0        
C3        C        0.11111100000000002        0.479166        0.0        0        
C4        C        0.166667        0.416666        0.0        0        
C1        C        0.11111100000000002        0.520834        0.0        0        
C2        C        0.166667        0.583334        0.0        0        
C3        C        0.11111100000000002        0.604166        0.0        0        
C4        C        0.166667        0.541666        0.0        0        
C1        C        0.11111100000000002        0.645834        0.0        0        
C2        C        0.166667        0.708334        0.0        0        
C3        C        0.11111100000000002        0.729166        0.0        0        
C4        C        0.166667        0.666666        0.0        0        
C1        C        0.22222200000000003        0.020834        0.0        0        
C2        C        0.277778        0.083334        0.0        0        
C3        C        0.22222200000000003        0.104166        0.0        0        
C4        C        0.277778        0.041666        0.0        0        
C1        C        0.22222200000000003        0.145834        0.0        0        
C2        C        0.277778        0.208334        0.0        0        
C3        C        0.22222200000000003        0.229166        0.0        0        
C4        C        0.277778        0.166666        0.0        0        
C1        C        0.22222200000000003        0.270834        0.0        0        
C2        C        0.277778        0.333334        0.0        0        
C3        C        0.22222200000000003        0.354166        0.0        0        
C4        C        0.277778        0.291666        0.0        0        
C1        C        0.22222200000000003        0.395833        0.0        0        
C2        C        0.277778        0.458334        0.0        0        
C3        C        0.22222200000000003        0.479166        0.0        0        
C4        C        0.277778        0.416666        0.0        0        
C1        C        0.22222200000000003        0.520834        0.0        0        
C2        C        0.277778        0.583334        0.0        0        
C3        C        0.22222200000000003        0.604166        0.0        0        
C4        C        0.277778        0.541666        0.0        0        
C1        C        0.22222200000000003        0.645834        0.0        0        
C2        C        0.277778        0.708334        0.0        0        
C3        C        0.22222200000000003        0.729166        0.0        0        
C4        C        0.277778        0.666666        0.0        0        
C1        C        0.333333        0.020834        0.0        0        
C2        C        0.388889        0.083334        0.0        0        
C3        C        0.333333        0.104166        0.0        0        
C4        C        0.388889        0.041666        0.0        0        
C1        C        0.333333        0.145834        0.0        0        
C2        C        0.388889        0.208334        0.0        0        
C3        C        0.333333        0.229166        0.0        0        
C4        C        0.388889        0.166666        0.0        0        
C1        C        0.333333        0.270834        0.0        0        
C2        C        0.388889        0.333334        0.0        0        
C3        C        0.333333        0.354166        0.0        0        
C4        C        0.388889        0.291666        0.0        0        
C1        C        0.333333        0.395833        0.0        0        
C2        C        0.388889        0.458334        0.0        0        
C3        C        0.333333        0.479166        0.0        0        
C4        C        0.388889        0.416666        0.0        0        
C1        C        0.333333        0.520834        0.0        0        
C2        C        0.388889        0.583334        0.0        0        
C3        C        0.333333        0.604166        0.0        0        
C4        C        0.388889        0.541666        0.0        0        
C1        C        0.333333        0.645834        0.0        0        
C2        C        0.388889        0.708334        0.0        0        
C3        C        0.333333        0.729166        0.0        0        
C4        C        0.388889        0.666666        0.0        0        
C1        C        0.44444400000000006        0.020834        0.0        0        
C2        C        0.5        0.083334        0.0        0        
C3        C        0.44444400000000006        0.104166        0.0        0        
C4        C        0.5        0.041666        0.0        0        
C1        C        0.44444400000000006        0.145834        0.0        0        
C2        C        0.5        0.208334        0.0        0        
C3        C        0.44444400000000006        0.229166        0.0        0        
C4        C        0.5        0.166666        0.0        0        
C1        C        0.44444400000000006        0.270834        0.0        0        
C2        C        0.5        0.333334        0.0        0        
C3        C        0.44444400000000006        0.354166        0.0        0        
C4        C        0.5        0.291666        0.0        0        
C1        C        0.44444400000000006        0.395833        0.0        0        
C2        C        0.5        0.458334        0.0        0        
C3        C        0.44444400000000006        0.479166        0.0        0        
C4        C        0.5        0.416666        0.0        0        
C1        C        0.44444400000000006        0.520834        0.0        0        
C2        C        0.5        0.583334        0.0        0        
C3        C        0.44444400000000006        0.604166        0.0        0        
C4        C        0.5        0.541666        0.0        0        
C1        C        0.44444400000000006        0.645834        0.0        0        
C2        C        0.5        0.708334        0.0        0        
C3        C        0.44444400000000006        0.729166        0.0        0        
C4        C        0.5        0.666666        0.0        0        
C1        C        0.555556        0.020834        0.0        0        
C2        C        0.611111        0.083334        0.0        0        
C3        C        0.555556        0.104166        0.0        0        
C4        C        0.611111        0.041666        0.0        0        
C1        C        0.555556        0.145834        0.0        0        
C2        C        0.611111        0.208334        0.0        0        
C3        C        0.555556        0.229166        0.0        0        
C4        C        0.611111        0.166666        0.0        0        
C1        C        0.555556        0.270834        0.0        0        
C2        C        0.611111        0.333334        0.0        0        
C3        C        0.555556        0.354166        0.0        0        
C4        C        0.611111        0.291666        0.0        0        
C1        C        0.555556        0.395833        0.0        0        
C2        C        0.611111        0.458334        0.0        0        
C3        C        0.555556        0.479166        0.0        0        
C4        C        0.611111        0.416666        0.0        0        
C1        C        0.555556        0.520834        0.0        0        
C2        C        0.611111        0.583334        0.0        0        
C3        C        0.555556        0.604166        0.0        0        
C4        C        0.611111        0.541666        0.0        0        
C1        C        0.555556        0.645834        0.0        0        
C2        C        0.611111        0.708334        0.0        0        
C3        C        0.555556        0.729166        0.0        0        
C4        C        0.611111        0.666666        0.0        0        
C1        C        0.666667        0.020834        0.0        0        
C2        C        0.722222        0.083334        0.0        0        
C3        C        0.666667        0.104166        0.0        0        
C4        C        0.722222        0.041666        0.0        0        
C1        C        0.666667        0.145834        0.0        0        
C2        C        0.722222        0.208334        0.0        0        
C3        C        0.666667        0.229166        0.0        0        
C4        C        0.722222        0.166666        0.0        0        
C1        C        0.666667        0.270834        0.0        0        
C2        C        0.722222        0.333334        0.0        0        
C3        C        0.666667        0.354166        0.0        0        
C4        C        0.722222        0.291666        0.0        0        
C1        C        0.666667        0.395833        0.0        0        
C2        C        0.722222        0.458334        0.0        0        
C3        C        0.666667        0.479166        0.0        0        
C4        C        0.722222        0.416666        0.0        0        
C1        C        0.666667        0.520834        0.0        0        
C2        C        0.722222        0.583334        0.0        0        
C3        C        0.666667        0.604166        0.0        0        
C4        C        0.722222        0.541666        0.0        0        
C1        C        0.666667        0.645834        0.0        0        
C2        C        0.722222        0.708334        0.0        0        
C3        C        0.666667        0.729166        0.0        0        
C4        C        0.722222        0.666666        0.0        0        
C1        C        0.777778        0.020834        0.0        0        
C2        C        0.833333        0.083334        0.0        0        
C3        C        0.777778        0.104166        0.0        0        
C4        C        0.833333        0.041666        0.0        0        
C1        C        0.777778        0.145834        0.0        0        
C2        C        0.833333        0.208334        0.0        0        
C3        C        0.777778        0.229166        0.0        0        
C4        C        0.833333        0.166666        0.0        0        
C1        C        0.777778        0.270834        0.0        0        
C2        C        0.833333        0.333334        0.0        0        
C3        C        0.777778        0.354166        0.0        0        
C4        C        0.833333        0.291666        0.0        0        
C1        C        0.777778        0.395833        0.0        0        
C2        C        0.833333        0.458334        0.0        0        
C3        C        0.777778        0.479166        0.0        0        
C4        C        0.833333        0.416666        0.0        0        
C1        C        0.777778        0.520834        0.0        0        
C2        C        0.833333        0.583334        0.0        0        
C3        C        0.777778        0.604166        0.0        0        
C4        C        0.833333        0.541666        0.0        0        
C1        C        0.777778        0.645834        0.0        0        
C2        C        0.833333        0.708334        0.0        0        
C3        C        0.777778        0.729166        0.0        0        
C4        C        0.833333        0.666666        0.0        0        
C1        C        0.888889        0.020834        0.0        0        
C2        C        0.944444        0.083334        0.0        0        
C3        C        0.888889        0.104166        0.0        0        
C4        C        0.944444        0.041666        0.0        0        
C1        C        0.888889        0.145834        0.0        0        
C2        C        0.944444        0.208334        0.0        0        
C3        C        0.888889        0.229166        0.0        0        
C4        C        0.944444        0.166666        0.0        0        
C1        C        0.888889        0.270834        0.0        0        
C2        C        0.944444        0.333334        0.0        0        
C3        C        0.888889        0.354166        0.0        0        
C4        C        0.944444        0.291666        0.0        0        
C1        C        0.888889        0.395833        0.0        0        
C2        C        0.944444        0.458334        0.0        0        
C3        C        0.888889        0.479166        0.0        0        
C4        C        0.944444        0.416666        0.0        0        
C1        C        0.888889        0.520834        0.0        0        
C2        C        0.944444        0.583334        0.0        0        
C3        C        0.888889        0.604166        0.0        0        
C4        C        0.944444        0.541666        0.0        0        
C1        C        0.888889        0.645834        0.0        0        
C2        C        0.944444        0.708334        0.0        0        
C3        C        0.888889        0.729166        0.0        0        
C4        C        0.944444        0.666666        0.0        0        
C1        C        0.0        0.770834        0.0        0        
C1        C        0.11111100000000002        0.770834        0.0        0        
C1        C        0.22222200000000003        0.770834        0.0        0        
C1        C        0.333333        0.770834        0.0        0        
C1        C        0.44444400000000006        0.770834        0.0        0        
C1        C        0.555556        0.770834        0.0        0        
C1        C        0.666667        0.770834        0.0        0        
C1        C        0.777778        0.770834        0.0        0        
C1        C        0.888889        0.770834        0.0        0        
C2        C        0.055556        0.833334        0.0        0        
C2        C        0.166667        0.833334        0.0        0        
C2        C        0.277778        0.833334        0.0        0        
C2        C        0.388889        0.833334        0.0        0        
C2        C        0.5        0.833334        0.0        0        
C2        C        0.611111        0.833334        0.0        0        
C2        C        0.722222        0.833334        0.0        0        
C2        C        0.833333        0.833334        0.0        0        
C2        C        0.944444        0.833334        0.0        0        
C3        C        0.0        0.854167        0.0        0        
C3        C        0.11111100000000002        0.854167        0.0        0        
C3        C        0.22222200000000003        0.854167        0.0        0        
C3        C        0.333333        0.854167        0.0        0        
C3        C        0.44444400000000006        0.854167        0.0        0        
C3        C        0.555556        0.854167        0.0        0        
C3        C        0.666667        0.854167        0.0        0        
C3        C        0.777778        0.854167        0.0        0        
C3        C        0.888889        0.854167        0.0        0        
C4        C        0.055556        0.791666        0.0        0        
C4        C        0.166667        0.791666        0.0        0        
C4        C        0.277778        0.791666        0.0        0        
C4        C        0.388889        0.791666        0.0        0        
C4        C        0.5        0.791666        0.0        0        
C4        C        0.611111        0.791666        0.0        0        
C4        C        0.722222        0.791666        0.0        0        
C4        C        0.833333        0.791666        0.0        0        
C4        C        0.944444        0.791666        0.0        0        
C1        C        0.0        0.895834        0.0        0        
C1        C        0.11111100000000002        0.895834        0.0        0        
C1        C        0.22222200000000003        0.895834        0.0        0        
C1        C        0.333333        0.895834        0.0        0        
C1        C        0.44444400000000006        0.895834        0.0        0        
C1        C        0.555556        0.895834        0.0        0        
C1        C        0.666667        0.895834        0.0        0        
C1        C        0.777778        0.895834        0.0        0        
C1        C        0.888889        0.895834        0.0        0        
C2        C        0.055556        0.958334        0.0        0        
C2        C        0.166667        0.958334        0.0        0        
C2        C        0.277778        0.958334        0.0        0        
C2        C        0.388889        0.958334        0.0        0        
C2        C        0.5        0.958334        0.0        0        
C2        C        0.611111        0.958334        0.0        0        
C2        C        0.722222        0.958334        0.0        0        
C2        C        0.833333        0.958334        0.0        0        
C2        C        0.944444        0.958334        0.0        0        
C3        C        0.0        0.979167        0.0        0        
C3        C        0.11111100000000002        0.979167        0.0        0        
C3        C        0.22222200000000003        0.979167        0.0        0        
C3        C        0.333333        0.979167        0.0        0        
C3        C        0.44444400000000006        0.979167        0.0        0        
C3        C        0.555556        0.979167        0.0        0        
C3        C        0.666667        0.979167        0.0        0        
C3        C        0.777778        0.979167        0.0        0        
C3        C        0.888889        0.979167        0.0        0        
C4        C        0.055556        0.916666        0.0        0        
C4        C        0.166667        0.916666        0.0        0        
C4        C        0.277778        0.916666        0.0        0        
C4        C        0.388889        0.916666        0.0        0        
C4        C        0.5        0.916666        0.0        0        
C4        C        0.611111        0.916666        0.0        0        
C4        C        0.722222        0.916666        0.0        0        
C4        C        0.833333        0.916666        0.0        0        
C4        C        0.944444        0.916666        0.0        0        
C1        C        0.0        0.020834        0.115917        0        
C2        C        0.055556        0.083334        0.115917        0        
C3        C        0.0        0.104166        0.115917        0        
C4        C        0.055556        0.041666        0.115917        0        
C1        C        0.0        0.145834        0.115917        0        
C2        C        0.055556        0.208334        0.115917        0        
C3        C        0.0        0.229166        0.115917        0        
C4        C        0.055556        0.166666        0.115917        0        
C1        C        0.0        0.270834        0.115917        0        
C2        C        0.055556        0.333334        0.115917        0        
C3        C        0.0        0.354166        0.115917        0        
C4        C        0.055556        0.291666        0.115917        0        
C1        C        0.0        0.395833        0.115917        0        
C2        C        0.055556        0.458334        0.115917        0        
C3        C        0.0        0.479166        0.115917        0        
C4        C        0.055556        0.416666        0.115917        0        
C1        C        0.0        0.520834        0.115917        0        
C2        C        0.055556        0.583334        0.115917        0        
C3        C        0.0        0.604166        0.115917        0        
C4        C        0.055556        0.541666        0.115917        0        
C1        C        0.0        0.645834        0.115917        0        
C2        C        0.055556        0.708334        0.115917        0        
C3        C        0.0        0.729166        0.115917        0        
C4        C        0.055556        0.666666        0.115917        0        
C1        C        0.11111100000000002        0.020834        0.115917        0        
C2        C        0.166667        0.083334        0.115917        0        
C3        C        0.11111100000000002        0.104166        0.115917        0        
C4        C        0.166667        0.041666        0.115917        0        
C1        C        0.11111100000000002        0.145834        0.115917        0        
C2        C        0.166667        0.208334        0.115917        0        
C3        C        0.11111100000000002        0.229166        0.115917        0        
C4        C        0.166667        0.166666        0.115917        0        
C1        C        0.11111100000000002        0.270834        0.115917        0        
C2        C        0.166667        0.333334        0.115917        0        
C3        C        0.11111100000000002        0.354166        0.115917        0        
C4        C        0.166667        0.291666        0.115917        0        
C1        C        0.11111100000000002        0.395833        0.115917        0        
C2        C        0.166667        0.458334        0.115917        0        
C3        C        0.11111100000000002        0.479166        0.115917        0        
C4        C        0.166667        0.416666        0.115917        0        
C1        C        0.11111100000000002        0.520834        0.115917        0        
C2        C        0.166667        0.583334        0.115917        0        
C3        C        0.11111100000000002        0.604166        0.115917        0        
C4        C        0.166667        0.541666        0.115917        0        
C1        C        0.11111100000000002        0.645834        0.115917        0        
C2        C        0.166667        0.708334        0.115917        0        
C3        C        0.11111100000000002        0.729166        0.115917        0        
C4        C        0.166667        0.666666        0.115917        0        
C1        C        0.22222200000000003        0.020834        0.115917        0        
C2        C        0.277778        0.083334        0.115917        0        
C3        C        0.22222200000000003        0.104166        0.115917        0        
C4        C        0.277778        0.041666        0.115917        0        
C1        C        0.22222200000000003        0.145834        0.115917        0        
C2        C        0.277778        0.208334        0.115917        0        
C3        C        0.22222200000000003        0.229166        0.115917        0        
C4        C        0.277778        0.166666        0.115917        0        
C1        C        0.22222200000000003        0.270834        0.115917        0        
C2        C        0.277778        0.333334        0.115917        0        
C3        C        0.22222200000000003        0.354166        0.115917        0        
C4        C        0.277778        0.291666        0.115917        0        
C1        C        0.22222200000000003        0.395833        0.115917        0        
C2        C        0.277778        0.458334        0.115917        0        
C3        C        0.22222200000000003        0.479166        0.115917        0        
C4        C        0.277778        0.416666        0.115917        0        
C1        C        0.22222200000000003        0.520834        0.115917        0        
C2        C        0.277778        0.583334        0.115917        0        
C3        C        0.22222200000000003        0.604166        0.115917        0        
C4        C        0.277778        0.541666        0.115917        0        
C1        C        0.22222200000000003        0.645834        0.115917        0        
C2        C        0.277778        0.708334        0.115917        0        
C3        C        0.22222200000000003        0.729166        0.115917        0        
C4        C        0.277778        0.666666        0.115917        0        
C1        C        0.333333        0.020834        0.115917        0        
C2        C        0.388889        0.083334        0.115917        0        
C3        C        0.333333        0.104166        0.115917        0        
C4        C        0.388889        0.041666        0.115917        0        
C1        C        0.333333        0.145834        0.115917        0        
C2        C        0.388889        0.208334        0.115917        0        
C3        C        0.333333        0.229166        0.115917        0        
C4        C        0.388889        0.166666        0.115917        0        
C1        C        0.333333        0.270834        0.115917        0        
C2        C        0.388889        0.333334        0.115917        0        
C3        C        0.333333        0.354166        0.115917        0        
C4        C        0.388889        0.291666        0.115917        0        
C1        C        0.333333        0.395833        0.115917        0        
C2        C        0.388889        0.458334        0.115917        0        
C3        C        0.333333        0.479166        0.115917        0        
C4        C        0.388889        0.416666        0.115917        0        
C1        C        0.333333        0.520834        0.115917        0        
C2        C        0.388889        0.583334        0.115917        0        
C3        C        0.333333        0.604166        0.115917        0        
C4        C        0.388889        0.541666        0.115917        0        
C1        C        0.333333        0.645834        0.115917        0        
C2        C        0.388889        0.708334        0.115917        0        
C3        C        0.333333        0.729166        0.115917        0        
C4        C        0.388889        0.666666        0.115917        0        
C1        C        0.44444400000000006        0.020834        0.115917        0        
C2        C        0.5        0.083334        0.115917        0        
C3        C        0.44444400000000006        0.104166        0.115917        0        
C4        C        0.5        0.041666        0.115917        0        
C1        C        0.44444400000000006        0.145834        0.115917        0        
C2        C        0.5        0.208334        0.115917        0        
C3        C        0.44444400000000006        0.229166        0.115917        0        
C4        C        0.5        0.166666        0.115917        0        
C1        C        0.44444400000000006        0.270834        0.115917        0        
C2        C        0.5        0.333334        0.115917        0        
C3        C        0.44444400000000006        0.354166        0.115917        0        
C4        C        0.5        0.291666        0.115917        0        
C1        C        0.44444400000000006        0.395833        0.115917        0        
C2        C        0.5        0.458334        0.115917        0        
C3        C        0.44444400000000006        0.479166        0.115917        0        
C4        C        0.5        0.416666        0.115917        0        
C1        C        0.44444400000000006        0.520834        0.115917        0        
C2        C        0.5        0.583334        0.115917        0        
C3        C        0.44444400000000006        0.604166        0.115917        0        
C4        C        0.5        0.541666        0.115917        0        
C1        C        0.44444400000000006        0.645834        0.115917        0        
C2        C        0.5        0.708334        0.115917        0        
C3        C        0.44444400000000006        0.729166        0.115917        0        
C4        C        0.5        0.666666        0.115917        0        
C1        C        0.555556        0.020834        0.115917        0        
C2        C        0.611111        0.083334        0.115917        0        
C3        C        0.555556        0.104166        0.115917        0        
C4        C        0.611111        0.041666        0.115917        0        
C1        C        0.555556        0.145834        0.115917        0        
C2        C        0.611111        0.208334        0.115917        0        
C3        C        0.555556        0.229166        0.115917        0        
C4        C        0.611111        0.166666        0.115917        0        
C1        C        0.555556        0.270834        0.115917        0        
C2        C        0.611111        0.333334        0.115917        0        
C3        C        0.555556        0.354166        0.115917        0        
C4        C        0.611111        0.291666        0.115917        0        
C1        C        0.555556        0.395833        0.115917        0        
C2        C        0.611111        0.458334        0.115917        0        
C3        C        0.555556        0.479166        0.115917        0        
C4        C        0.611111        0.416666        0.115917        0        
C1        C        0.555556        0.520834        0.115917        0        
C2        C        0.611111        0.583334        0.115917        0        
C3        C        0.555556        0.604166        0.115917        0        
C4        C        0.611111        0.541666        0.115917        0        
C1        C        0.555556        0.645834        0.115917        0        
C2        C        0.611111        0.708334        0.115917        0        
C3        C        0.555556        0.729166        0.115917        0        
C4        C        0.611111        0.666666        0.115917        0        
C1        C        0.666667        0.020834        0.115917        0        
C2        C        0.722222        0.083334        0.115917        0        
C3        C        0.666667        0.104166        0.115917        0        
C4        C        0.722222        0.041666        0.115917        0        
C1        C        0.666667        0.145834        0.115917        0        
C2        C        0.722222        0.208334        0.115917        0        
C3        C        0.666667        0.229166        0.115917        0        
C4        C        0.722222        0.166666        0.115917        0        
C1        C        0.666667        0.270834        0.115917        0        
C2        C        0.722222        0.333334        0.115917        0        
C3        C        0.666667        0.354166        0.115917        0        
C4        C        0.722222        0.291666        0.115917        0        
C1        C        0.666667        0.395833        0.115917        0        
C2        C        0.722222        0.458334        0.115917        0        
C3        C        0.666667        0.479166        0.115917        0        
C4        C        0.722222        0.416666        0.115917        0        
C1        C        0.666667        0.520834        0.115917        0        
C2        C        0.722222        0.583334        0.115917        0        
C3        C        0.666667        0.604166        0.115917        0        
C4        C        0.722222        0.541666        0.115917        0        
C1        C        0.666667        0.645834        0.115917        0        
C2        C        0.722222        0.708334        0.115917        0        
C3        C        0.666667        0.729166        0.115917        0        
C4        C        0.722222        0.666666        0.115917        0        
C1        C        0.777778        0.020834        0.115917        0        
C2        C        0.833333        0.083334        0.115917        0        
C3        C        0.777778        0.104166        0.115917        0        
C4        C        0.833333        0.041666        0.115917        0        
C1        C        0.777778        0.145834        0.115917        0        
C2        C        0.833333        0.208334        0.115917        0        
C3        C        0.777778        0.229166        0.115917        0        
C4        C        0.833333        0.166666        0.115917        0        
C1        C        0.777778        0.270834        0.115917        0        
C2        C        0.833333        0.333334        0.115917        0        
C3        C        0.777778        0.354166        0.115917        0        
C4        C        0.833333        0.291666        0.115917        0        
C1        C        0.777778        0.395833        0.115917        0        
C2        C        0.833333        0.458334        0.115917        0        
C3        C        0.777778        0.479166        0.115917        0        
C4        C        0.833333        0.416666        0.115917        0        
C1        C        0.777778        0.520834        0.115917        0        
C2        C        0.833333        0.583334        0.115917        0        
C3        C        0.777778        0.604166        0.115917        0        
C4        C        0.833333        0.541666        0.115917        0        
C1        C        0.777778        0.645834        0.115917        0        
C2        C        0.833333        0.708334        0.115917        0        
C3        C        0.777778        0.729166        0.115917        0        
C4        C        0.833333        0.666666        0.115917        0        
C1        C        0.888889        0.020834        0.115917        0        
C2        C        0.944444        0.083334        0.115917        0        
C3        C        0.888889        0.104166        0.115917        0        
C4        C        0.944444        0.041666        0.115917        0        
C1        C        0.888889        0.145834        0.115917        0        
C2        C        0.944444        0.208334        0.115917        0        
C3        C        0.888889        0.229166        0.115917        0        
C4        C        0.944444        0.166666        0.115917        0        
C1        C        0.888889        0.270834        0.115917        0        
C2        C        0.944444        0.333334        0.115917        0        
C3        C        0.888889        0.354166        0.115917        0        
C4        C        0.944444        0.291666        0.115917        0        
C1        C        0.888889        0.395833        0.115917        0        
C2        C        0.944444        0.458334        0.115917        0        
C3        C        0.888889        0.479166        0.115917        0        
C4        C        0.944444        0.416666        0.115917        0        
C1        C        0.888889        0.520834        0.115917        0        
C2        C        0.944444        0.583334        0.115917        0        
C3        C        0.888889        0.604166        0.115917        0        
C4        C        0.944444        0.541666        0.115917        0        
C1        C        0.888889        0.645834        0.115917        0        
C2        C        0.944444        0.708334        0.115917        0        
C3        C        0.888889        0.729166        0.115917        0        
C4        C        0.944444        0.666666        0.115917        0        
C1        C        0.0        0.770834        0.115917        0        
C1        C        0.11111100000000002        0.770834        0.115917        0        
C1        C        0.22222200000000003        0.770834        0.115917        0        
C1        C        0.333333        0.770834        0.115917        0        
C1        C        0.44444400000000006        0.770834        0.115917        0        
C1        C        0.555556        0.770834        0.115917        0        
C1        C        0.666667        0.770834        0.115917        0        
C1        C        0.777778        0.770834        0.115917        0        
C1        C        0.888889        0.770834        0.115917        0        
C2        C        0.055556        0.833334        0.115917        0        
C2        C        0.166667        0.833334        0.115917        0        
C2        C        0.277778        0.833334        0.115917        0        
C2        C        0.388889        0.833334        0.115917        0        
C2        C        0.5        0.833334        0.115917        0        
C2        C        0.611111        0.833334        0.115917        0        
C2        C        0.722222        0.833334        0.115917        0        
C2        C        0.833333        0.833334        0.115917        0        
C2        C        0.944444        0.833334        0.115917        0        
C3        C        0.0        0.854167        0.115917        0        
C3        C        0.11111100000000002        0.854167        0.115917        0        
C3        C        0.22222200000000003        0.854167        0.115917        0        
C3        C        0.333333        0.854167        0.115917        0        
C3        C        0.44444400000000006        0.854167        0.115917        0        
C3        C        0.555556        0.854167        0.115917        0        
C3        C        0.666667        0.854167        0.115917        0        
C3        C        0.777778        0.854167        0.115917        0        
C3        C        0.888889        0.854167        0.115917        0        
C4        C        0.055556        0.791666        0.115917        0        
C4        C        0.166667        0.791666        0.115917        0        
C4        C        0.277778        0.791666        0.115917        0        
C4        C        0.388889        0.791666        0.115917        0        
C4        C        0.5        0.791666        0.115917        0        
C4        C        0.611111        0.791666        0.115917        0        
C4        C        0.722222        0.791666        0.115917        0        
C4        C        0.833333        0.791666        0.115917        0        
C4        C        0.944444        0.791666        0.115917        0        
C1        C        0.0        0.895834        0.115917        0        
C1        C        0.11111100000000002        0.895834        0.115917        0        
C1        C        0.22222200000000003        0.895834        0.115917        0        
C1        C        0.333333        0.895834        0.115917        0        
C1        C        0.44444400000000006        0.895834        0.115917        0        
C1        C        0.555556        0.895834        0.115917        0        
C1        C        0.666667        0.895834        0.115917        0        
C1        C        0.777778        0.895834        0.115917        0        
C1        C        0.888889        0.895834        0.115917        0        
C2        C        0.055556        0.958334        0.115917        0        
C2        C        0.166667        0.958334        0.115917        0        
C2        C        0.277778        0.958334        0.115917        0        
C2        C        0.388889        0.958334        0.115917        0        
C2        C        0.5        0.958334        0.115917        0        
C2        C        0.611111        0.958334        0.115917        0        
C2        C        0.722222        0.958334        0.115917        0        
C2        C        0.833333        0.958334        0.115917        0        
C2        C        0.944444        0.958334        0.115917        0        
C3        C        0.0        0.979167        0.115917        0        
C3        C        0.11111100000000002        0.979167        0.115917        0        
C3        C        0.22222200000000003        0.979167        0.115917        0        
C3        C        0.333333        0.979167        0.115917        0        
C3        C        0.44444400000000006        0.979167        0.115917        0        
C3        C        0.555556        0.979167        0.115917        0        
C3        C        0.666667        0.979167        0.115917        0        
C3        C        0.777778        0.979167        0.115917        0        
C3        C        0.888889        0.979167        0.115917        0        
C4        C        0.055556        0.916666        0.115917        0        
C4        C        0.166667        0.916666        0.115917        0        
C4        C        0.277778        0.916666        0.115917        0        
C4        C        0.388889        0.916666        0.115917        0        
C4        C        0.5        0.916666        0.115917        0        
C4        C        0.611111        0.916666        0.115917        0        
C4        C        0.722222        0.916666        0.115917        0        
C4        C        0.833333        0.916666        0.115917        0        
C4        C        0.944444        0.916666        0.115917        0        
C1        C        0.0        0.020834        0.231834        0        
C2        C        0.055556        0.083334        0.231834        0        
C3        C        0.0        0.104166        0.231834        0        
C4        C        0.055556        0.041666        0.231834        0        
C1        C        0.0        0.145834        0.231834        0        
C2        C        0.055556        0.208334        0.231834        0        
C3        C        0.0        0.229166        0.231834        0        
C4        C        0.055556        0.166666        0.231834        0        
C1        C        0.0        0.270834        0.231834        0        
C2        C        0.055556        0.333334        0.231834        0        
C3        C        0.0        0.354166        0.231834        0        
C4        C        0.055556        0.291666        0.231834        0        
C1        C        0.0        0.395833        0.231834        0        
C2        C        0.055556        0.458334        0.231834        0        
C3        C        0.0        0.479166        0.231834        0        
C4        C        0.055556        0.416666        0.231834        0        
C1        C        0.0        0.520834        0.231834        0        
C2        C        0.055556        0.583334        0.231834        0        
C3        C        0.0        0.604166        0.231834        0        
C4        C        0.055556        0.541666        0.231834        0        
C1        C        0.0        0.645834        0.231834        0        
C2        C        0.055556        0.708334        0.231834        0        
C3        C        0.0        0.729166        0.231834        0        
C4        C        0.055556        0.666666        0.231834        0        
C_FG        C        0.11111100000000002        0.020834        0.231834        0.2        
C2        C        0.166667        0.083334        0.231834        0        
C3        C        0.11111100000000002        0.104166        0.231834        0        
C4        C        0.166667        0.041666        0.231834        0        
C_FG        C        0.11111100000000002        0.145834        0.231834        0.2        
C2        C        0.166667        0.208334        0.231834        0        
C3        C        0.11111100000000002        0.229166        0.231834        0        
C4        C        0.166667        0.166666        0.231834        0        
C_FG        C        0.11111100000000002        0.270834        0.231834        0.2        
C2        C        0.166667        0.333334        0.231834        0        
C3        C        0.11111100000000002        0.354166        0.231834        0        
C4        C        0.166667        0.291666        0.231834        0        
C_FG        C        0.11111100000000002        0.395833        0.231834        0.2        
C2        C        0.166667        0.458334        0.231834        0        
C3        C        0.11111100000000002        0.479166        0.231834        0        
C4        C        0.166667        0.416666        0.231834        0        
C_FG        C        0.11111100000000002        0.520834        0.231834        0.2        
C2        C        0.166667        0.583334        0.231834        0        
C3        C        0.11111100000000002        0.604166        0.231834        0        
C4        C        0.166667        0.541666        0.231834        0        
C_FG        C        0.11111100000000002        0.645834        0.231834        0.2        
C2        C        0.166667        0.708334        0.231834        0        
C3        C        0.11111100000000002        0.729166        0.231834        0        
C4        C        0.166667        0.666666        0.231834        0        
C1        C        0.22222200000000003        0.020834        0.231834        0        
C2        C        0.277778        0.083334        0.231834        0        
C3        C        0.22222200000000003        0.104166        0.231834        0        
C4        C        0.277778        0.041666        0.231834        0        
C1        C        0.22222200000000003        0.145834        0.231834        0        
C2        C        0.277778        0.208334        0.231834        0        
C3        C        0.22222200000000003        0.229166        0.231834        0        
C4        C        0.277778        0.166666        0.231834        0        
C1        C        0.22222200000000003        0.270834        0.231834        0        
C2        C        0.277778        0.333334        0.231834        0        
C3        C        0.22222200000000003        0.354166        0.231834        0        
C4        C        0.277778        0.291666        0.231834        0        
C1        C        0.22222200000000003        0.395833        0.231834        0        
C2        C        0.277778        0.458334        0.231834        0        
C3        C        0.22222200000000003        0.479166        0.231834        0        
C4        C        0.277778        0.416666        0.231834        0        
C1        C        0.22222200000000003        0.520834        0.231834        0        
C2        C        0.277778        0.583334        0.231834        0        
C3        C        0.22222200000000003        0.604166        0.231834        0        
C4        C        0.277778        0.541666        0.231834        0        
C1        C        0.22222200000000003        0.645834        0.231834        0        
C2        C        0.277778        0.708334        0.231834        0        
C3        C        0.22222200000000003        0.729166        0.231834        0        
C4        C        0.277778        0.666666        0.231834        0        
C_FG        C        0.333333        0.020834        0.231834        0.2        
C2        C        0.388889        0.083334        0.231834        0        
C3        C        0.333333        0.104166        0.231834        0        
C4        C        0.388889        0.041666        0.231834        0        
C_FG        C        0.333333        0.145834        0.231834        0.2        
C2        C        0.388889        0.208334        0.231834        0        
C3        C        0.333333        0.229166        0.231834        0        
C4        C        0.388889        0.166666        0.231834        0        
C_FG        C        0.333333        0.270834        0.231834        0.2        
C2        C        0.388889        0.333334        0.231834        0        
C3        C        0.333333        0.354166        0.231834        0        
C4        C        0.388889        0.291666        0.231834        0        
C_FG        C        0.333333        0.395833        0.231834        0.2        
C2        C        0.388889        0.458334        0.231834        0        
C3        C        0.333333        0.479166        0.231834        0        
C4        C        0.388889        0.416666        0.231834        0        
C_FG        C        0.333333        0.520834        0.231834        0.2        
C2        C        0.388889        0.583334        0.231834        0        
C3        C        0.333333        0.604166        0.231834        0        
C4        C        0.388889        0.541666        0.231834        0        
C_FG        C        0.333333        0.645834        0.231834        0.2        
C2        C        0.388889        0.708334        0.231834        0        
C3        C        0.333333        0.729166        0.231834        0        
C4        C        0.388889        0.666666        0.231834        0        
C1        C        0.44444400000000006        0.020834        0.231834        0        
C2        C        0.5        0.083334        0.231834        0        
C3        C        0.44444400000000006        0.104166        0.231834        0        
C4        C        0.5        0.041666        0.231834        0        
C1        C        0.44444400000000006        0.145834        0.231834        0        
C2        C        0.5        0.208334        0.231834        0        
C3        C        0.44444400000000006        0.229166        0.231834        0        
C4        C        0.5        0.166666        0.231834        0        
C1        C        0.44444400000000006        0.270834        0.231834        0        
C2        C        0.5        0.333334        0.231834        0        
C3        C        0.44444400000000006        0.354166        0.231834        0        
C4        C        0.5        0.291666        0.231834        0        
C1        C        0.44444400000000006        0.395833        0.231834        0        
C2        C        0.5        0.458334        0.231834        0        
C3        C        0.44444400000000006        0.479166        0.231834        0        
C4        C        0.5        0.416666        0.231834        0        
C1        C        0.44444400000000006        0.520834        0.231834        0        
C2        C        0.5        0.583334        0.231834        0        
C3        C        0.44444400000000006        0.604166        0.231834        0        
C4        C        0.5        0.541666        0.231834        0        
C1        C        0.44444400000000006        0.645834        0.231834        0        
C2        C        0.5        0.708334        0.231834        0        
C3        C        0.44444400000000006        0.729166        0.231834        0        
C4        C        0.5        0.666666        0.231834        0        
C1        C        0.555556        0.020834        0.231834        0        
C2        C        0.611111        0.083334        0.231834        0        
C3        C        0.555556        0.104166        0.231834        0        
C4        C        0.611111        0.041666        0.231834        0        
C1        C        0.555556        0.145834        0.231834        0        
C2        C        0.611111        0.208334        0.231834        0        
C3        C        0.555556        0.229166        0.231834        0        
C4        C        0.611111        0.166666        0.231834        0        
C1        C        0.555556        0.270834        0.231834        0        
C2        C        0.611111        0.333334        0.231834        0        
C3        C        0.555556        0.354166        0.231834        0        
C4        C        0.611111        0.291666        0.231834        0        
C1        C        0.555556        0.395833        0.231834        0        
C2        C        0.611111        0.458334        0.231834        0        
C3        C        0.555556        0.479166        0.231834        0        
C4        C        0.611111        0.416666        0.231834        0        
C1        C        0.555556        0.520834        0.231834        0        
C2        C        0.611111        0.583334        0.231834        0        
C3        C        0.555556        0.604166        0.231834        0        
C4        C        0.611111        0.541666        0.231834        0        
C1        C        0.555556        0.645834        0.231834        0        
C2        C        0.611111        0.708334        0.231834        0        
C3        C        0.555556        0.729166        0.231834        0        
C4        C        0.611111        0.666666        0.231834        0        
C_FG        C        0.666667        0.020834        0.231834        0.2        
C2        C        0.722222        0.083334        0.231834        0        
C3        C        0.666667        0.104166        0.231834        0        
C4        C        0.722222        0.041666        0.231834        0        
C_FG        C        0.666667        0.145834        0.231834        0.2        
C2        C        0.722222        0.208334        0.231834        0        
C3        C        0.666667        0.229166        0.231834        0        
C4        C        0.722222        0.166666        0.231834        0        
C_FG        C        0.666667        0.270834        0.231834        0.2        
C2        C        0.722222        0.333334        0.231834        0        
C3        C        0.666667        0.354166        0.231834        0        
C4        C        0.722222        0.291666        0.231834        0        
C_FG        C        0.666667        0.395833        0.231834        0.2        
C2        C        0.722222        0.458334        0.231834        0        
C3        C        0.666667        0.479166        0.231834        0        
C4        C        0.722222        0.416666        0.231834        0        
C_FG        C        0.666667        0.520834        0.231834        0.2        
C2        C        0.722222        0.583334        0.231834        0        
C3        C        0.666667        0.604166        0.231834        0        
C4        C        0.722222        0.541666        0.231834        0        
C_FG        C        0.666667        0.645834        0.231834        0.2        
C2        C        0.722222        0.708334        0.231834        0        
C3        C        0.666667        0.729166        0.231834        0        
C4        C        0.722222        0.666666        0.231834        0        
C1        C        0.777778        0.020834        0.231834        0        
C2        C        0.833333        0.083334        0.231834        0        
C3        C        0.777778        0.104166        0.231834        0        
C4        C        0.833333        0.041666        0.231834        0        
C1        C        0.777778        0.145834        0.231834        0        
C2        C        0.833333        0.208334        0.231834        0        
C3        C        0.777778        0.229166        0.231834        0        
C4        C        0.833333        0.166666        0.231834        0        
C1        C        0.777778        0.270834        0.231834        0        
C2        C        0.833333        0.333334        0.231834        0        
C3        C        0.777778        0.354166        0.231834        0        
C4        C        0.833333        0.291666        0.231834        0        
C1        C        0.777778        0.395833        0.231834        0        
C2        C        0.833333        0.458334        0.231834        0        
C3        C        0.777778        0.479166        0.231834        0        
C4        C        0.833333        0.416666        0.231834        0        
C1        C        0.777778        0.520834        0.231834        0        
C2        C        0.833333        0.583334        0.231834        0        
C3        C        0.777778        0.604166        0.231834        0        
C4        C        0.833333        0.541666        0.231834        0        
C1        C        0.777778        0.645834        0.231834        0        
C2        C        0.833333        0.708334        0.231834        0        
C3        C        0.777778        0.729166        0.231834        0        
C4        C        0.833333        0.666666        0.231834        0        
C_FG        C        0.888889        0.020834        0.231834        0.2        
C2        C        0.944444        0.083334        0.231834        0        
C3        C        0.888889        0.104166        0.231834        0        
C4        C        0.944444        0.041666        0.231834        0        
C_FG        C        0.888889        0.145834        0.231834        0.2        
C2        C        0.944444        0.208334        0.231834        0        
C3        C        0.888889        0.229166        0.231834        0        
C4        C        0.944444        0.166666        0.231834        0        
C_FG        C        0.888889        0.270834        0.231834        0.2        
C2        C        0.944444        0.333334        0.231834        0        
C3        C        0.888889        0.354166        0.231834        0        
C4        C        0.944444        0.291666        0.231834        0        
C_FG        C        0.888889        0.395833        0.231834        0.2        
C2        C        0.944444        0.458334        0.231834        0        
C3        C        0.888889        0.479166        0.231834        0        
C4        C        0.944444        0.416666        0.231834        0        
C_FG        C        0.888889        0.520834        0.231834        0.2        
C2        C        0.944444        0.583334        0.231834        0        
C3        C        0.888889        0.604166        0.231834        0        
C4        C        0.944444        0.541666        0.231834        0        
C_FG        C        0.888889        0.645834        0.231834        0.2        
C2        C        0.944444        0.708334        0.231834        0        
C3        C        0.888889        0.729166        0.231834        0        
C4        C        0.944444        0.666666        0.231834        0        
C1        C        0.0        0.770834        0.231834        0        
C_FG        C        0.11111100000000002        0.770834        0.231834        0.2        
C1        C        0.22222200000000003        0.770834        0.231834        0        
C_FG        C        0.333333        0.770834        0.231834        0.2        
C1        C        0.44444400000000006        0.770834        0.231834        0        
C1        C        0.555556        0.770834        0.231834        0        
C_FG        C        0.666667        0.770834        0.231834        0.2        
C1        C        0.777778        0.770834        0.231834        0        
C_FG        C        0.888889        0.770834        0.231834        0.2        
C2        C        0.055556        0.833334        0.231834        0        
C2        C        0.166667        0.833334        0.231834        0        
C2        C        0.277778        0.833334        0.231834        0        
C2        C        0.388889        0.833334        0.231834        0        
C2        C        0.5        0.833334        0.231834        0        
C2        C        0.611111        0.833334        0.231834        0        
C2        C        0.722222        0.833334        0.231834        0        
C2        C        0.833333        0.833334        0.231834        0        
C2        C        0.944444        0.833334        0.231834        0        
C3        C        0.0        0.854167        0.231834        0        
C3        C        0.11111100000000002        0.854167        0.231834        0        
C3        C        0.22222200000000003        0.854167        0.231834        0        
C3        C        0.333333        0.854167        0.231834        0        
C3        C        0.44444400000000006        0.854167        0.231834        0        
C3        C        0.555556        0.854167        0.231834        0        
C3        C        0.666667        0.854167        0.231834        0        
C3        C        0.777778        0.854167        0.231834        0        
C3        C        0.888889        0.854167        0.231834        0        
C4        C        0.055556        0.791666        0.231834        0        
C4        C        0.166667        0.791666        0.231834        0        
C4        C        0.277778        0.791666        0.231834        0        
C4        C        0.388889        0.791666        0.231834        0        
C4        C        0.5        0.791666        0.231834        0        
C4        C        0.611111        0.791666        0.231834        0        
C4        C        0.722222        0.791666        0.231834        0        
C4        C        0.833333        0.791666        0.231834        0        
C4        C        0.944444        0.791666        0.231834        0        
C1        C        0.0        0.895834        0.231834        0        
C_FG        C        0.11111100000000002        0.895834        0.231834        0.2        
C1        C        0.22222200000000003        0.895834        0.231834        0        
C_FG        C        0.333333        0.895834        0.231834        0.2        
C1        C        0.44444400000000006        0.895834        0.231834        0        
C1        C        0.555556        0.895834        0.231834        0        
C_FG        C        0.666667        0.895834        0.231834        0.2        
C1        C        0.777778        0.895834        0.231834        0        
C_FG        C        0.888889        0.895834        0.231834        0.2        
C2        C        0.055556        0.958334        0.231834        0        
C2        C        0.166667        0.958334        0.231834        0        
C2        C        0.277778        0.958334        0.231834        0        
C2        C        0.388889        0.958334        0.231834        0        
C2        C        0.5        0.958334        0.231834        0        
C2        C        0.611111        0.958334        0.231834        0        
C2        C        0.722222        0.958334        0.231834        0        
C2        C        0.833333        0.958334        0.231834        0        
C2        C        0.944444        0.958334        0.231834        0        
C3        C        0.0        0.979167        0.231834        0        
C3        C        0.11111100000000002        0.979167        0.231834        0        
C3        C        0.22222200000000003        0.979167        0.231834        0        
C3        C        0.333333        0.979167        0.231834        0        
C3        C        0.44444400000000006        0.979167        0.231834        0        
C3        C        0.555556        0.979167        0.231834        0        
C3        C        0.666667        0.979167        0.231834        0        
C3        C        0.777778        0.979167        0.231834        0        
C3        C        0.888889        0.979167        0.231834        0        
C4        C        0.055556        0.916666        0.231834        0        
C4        C        0.166667        0.916666        0.231834        0        
C4        C        0.277778        0.916666        0.231834        0        
C4        C        0.388889        0.916666        0.231834        0        
C4        C        0.5        0.916666        0.231834        0        
C4        C        0.611111        0.916666        0.231834        0        
C4        C        0.722222        0.916666        0.231834        0        
C4        C        0.833333        0.916666        0.231834        0        
C4        C        0.944444        0.916666        0.231834        0        
C1        C        0.0        0.020834        0.768166        0        
C2        C        0.055556        0.083334        0.768166        0        
C3        C        0.0        0.104166        0.768166        0        
C4        C        0.055556        0.041666        0.768166        0        
C1        C        0.0        0.145834        0.768166        0        
C2        C        0.055556        0.208334        0.768166        0        
C3        C        0.0        0.229166        0.768166        0        
C4        C        0.055556        0.166666        0.768166        0        
C1        C        0.0        0.270834        0.768166        0        
C2        C        0.055556        0.333334        0.768166        0        
C3        C        0.0        0.354166        0.768166        0        
C4        C        0.055556        0.291666        0.768166        0        
C1        C        0.0        0.395833        0.768166        0        
C2        C        0.055556        0.458334        0.768166        0        
C3        C        0.0        0.479166        0.768166        0        
C4        C        0.055556        0.416666        0.768166        0        
C1        C        0.0        0.520834        0.768166        0        
C2        C        0.055556        0.583334        0.768166        0        
C3        C        0.0        0.604166        0.768166        0        
C4        C        0.055556        0.541666        0.768166        0        
C1        C        0.0        0.645834        0.768166        0        
C2        C        0.055556        0.708334        0.768166        0        
C3        C        0.0        0.729166        0.768166        0        
C4        C        0.055556        0.666666        0.768166        0        
C_FG        C        0.11111100000000002        0.020834        0.768166        0.2        
C2        C        0.166667        0.083334        0.768166        0        
C3        C        0.11111100000000002        0.104166        0.768166        0        
C4        C        0.166667        0.041666        0.768166        0        
C_FG        C        0.11111100000000002        0.145834        0.768166        0.2        
C2        C        0.166667        0.208334        0.768166        0        
C3        C        0.11111100000000002        0.229166        0.768166        0        
C4        C        0.166667        0.166666        0.768166        0        
C_FG        C        0.11111100000000002        0.270834        0.768166        0.2        
C2        C        0.166667        0.333334        0.768166        0        
C3        C        0.11111100000000002        0.354166        0.768166        0        
C4        C        0.166667        0.291666        0.768166        0        
C_FG        C        0.11111100000000002        0.395833        0.768166        0.2        
C2        C        0.166667        0.458334        0.768166        0        
C3        C        0.11111100000000002        0.479166        0.768166        0        
C4        C        0.166667        0.416666        0.768166        0        
C_FG        C        0.11111100000000002        0.520834        0.768166        0.2        
C2        C        0.166667        0.583334        0.768166        0        
C3        C        0.11111100000000002        0.604166        0.768166        0        
C4        C        0.166667        0.541666        0.768166        0        
C_FG        C        0.11111100000000002        0.645834        0.768166        0.2        
C2        C        0.166667        0.708334        0.768166        0        
C3        C        0.11111100000000002        0.729166        0.768166        0        
C4        C        0.166667        0.666666        0.768166        0        
C1        C        0.22222200000000003        0.020834        0.768166        0        
C2        C        0.277778        0.083334        0.768166        0        
C3        C        0.22222200000000003        0.104166        0.768166        0        
C4        C        0.277778        0.041666        0.768166        0        
C1        C        0.22222200000000003        0.145834        0.768166        0        
C2        C        0.277778        0.208334        0.768166        0        
C3        C        0.22222200000000003        0.229166        0.768166        0        
C4        C        0.277778        0.166666        0.768166        0        
C1        C        0.22222200000000003        0.270834        0.768166        0        
C2        C        0.277778        0.333334        0.768166        0        
C3        C        0.22222200000000003        0.354166        0.768166        0        
C4        C        0.277778        0.291666        0.768166        0        
C1        C        0.22222200000000003        0.395833        0.768166        0        
C2        C        0.277778        0.458334        0.768166        0        
C3        C        0.22222200000000003        0.479166        0.768166        0        
C4        C        0.277778        0.416666        0.768166        0        
C1        C        0.22222200000000003        0.520834        0.768166        0        
C2        C        0.277778        0.583334        0.768166        0        
C3        C        0.22222200000000003        0.604166        0.768166        0        
C4        C        0.277778        0.541666        0.768166        0        
C1        C        0.22222200000000003        0.645834        0.768166        0        
C2        C        0.277778        0.708334        0.768166        0        
C3        C        0.22222200000000003        0.729166        0.768166        0        
C4        C        0.277778        0.666666        0.768166        0        
C_FG        C        0.333333        0.020834        0.768166        0.2        
C2        C        0.388889        0.083334        0.768166        0        
C3        C        0.333333        0.104166        0.768166        0        
C4        C        0.388889        0.041666        0.768166        0        
C_FG        C        0.333333        0.145834        0.768166        0.2        
C2        C        0.388889        0.208334        0.768166        0        
C3        C        0.333333        0.229166        0.768166        0        
C4        C        0.388889        0.166666        0.768166        0        
C_FG        C        0.333333        0.270834        0.768166        0.2        
C2        C        0.388889        0.333334        0.768166        0        
C3        C        0.333333        0.354166        0.768166        0        
C4        C        0.388889        0.291666        0.768166        0        
C_FG        C        0.333333        0.395833        0.768166        0.2        
C2        C        0.388889        0.458334        0.768166        0        
C3        C        0.333333        0.479166        0.768166        0        
C4        C        0.388889        0.416666        0.768166        0        
C_FG        C        0.333333        0.520834        0.768166        0.2        
C2        C        0.388889        0.583334        0.768166        0        
C3        C        0.333333        0.604166        0.768166        0        
C4        C        0.388889        0.541666        0.768166        0        
C_FG        C        0.333333        0.645834        0.768166        0.2        
C2        C        0.388889        0.708334        0.768166        0        
C3        C        0.333333        0.729166        0.768166        0        
C4        C        0.388889        0.666666        0.768166        0        
C1        C        0.44444400000000006        0.020834        0.768166        0        
C2        C        0.5        0.083334        0.768166        0        
C3        C        0.44444400000000006        0.104166        0.768166        0        
C4        C        0.5        0.041666        0.768166        0        
C1        C        0.44444400000000006        0.145834        0.768166        0        
C2        C        0.5        0.208334        0.768166        0        
C3        C        0.44444400000000006        0.229166        0.768166        0        
C4        C        0.5        0.166666        0.768166        0        
C1        C        0.44444400000000006        0.270834        0.768166        0        
C2        C        0.5        0.333334        0.768166        0        
C3        C        0.44444400000000006        0.354166        0.768166        0        
C4        C        0.5        0.291666        0.768166        0        
C1        C        0.44444400000000006        0.395833        0.768166        0        
C2        C        0.5        0.458334        0.768166        0        
C3        C        0.44444400000000006        0.479166        0.768166        0        
C4        C        0.5        0.416666        0.768166        0        
C1        C        0.44444400000000006        0.520834        0.768166        0        
C2        C        0.5        0.583334        0.768166        0        
C3        C        0.44444400000000006        0.604166        0.768166        0        
C4        C        0.5        0.541666        0.768166        0        
C1        C        0.44444400000000006        0.645834        0.768166        0        
C2        C        0.5        0.708334        0.768166        0        
C3        C        0.44444400000000006        0.729166        0.768166        0        
C4        C        0.5        0.666666        0.768166        0        
C1        C        0.555556        0.020834        0.768166        0        
C2        C        0.611111        0.083334        0.768166        0        
C3        C        0.555556        0.104166        0.768166        0        
C4        C        0.611111        0.041666        0.768166        0        
C1        C        0.555556        0.145834        0.768166        0        
C2        C        0.611111        0.208334        0.768166        0        
C3        C        0.555556        0.229166        0.768166        0        
C4        C        0.611111        0.166666        0.768166        0        
C1        C        0.555556        0.270834        0.768166        0        
C2        C        0.611111        0.333334        0.768166        0        
C3        C        0.555556        0.354166        0.768166        0        
C4        C        0.611111        0.291666        0.768166        0        
C1        C        0.555556        0.395833        0.768166        0        
C2        C        0.611111        0.458334        0.768166        0        
C3        C        0.555556        0.479166        0.768166        0        
C4        C        0.611111        0.416666        0.768166        0        
C1        C        0.555556        0.520834        0.768166        0        
C2        C        0.611111        0.583334        0.768166        0        
C3        C        0.555556        0.604166        0.768166        0        
C4        C        0.611111        0.541666        0.768166        0        
C1        C        0.555556        0.645834        0.768166        0        
C2        C        0.611111        0.708334        0.768166        0        
C3        C        0.555556        0.729166        0.768166        0        
C4        C        0.611111        0.666666        0.768166        0        
C_FG        C        0.666667        0.020834        0.768166        0.2        
C2        C        0.722222        0.083334        0.768166        0        
C3        C        0.666667        0.104166        0.768166        0        
C4        C        0.722222        0.041666        0.768166        0        
C_FG        C        0.666667        0.145834        0.768166        0.2        
C2        C        0.722222        0.208334        0.768166        0        
C3        C        0.666667        0.229166        0.768166        0        
C4        C        0.722222        0.166666        0.768166        0        
C_FG        C        0.666667        0.270834        0.768166        0.2        
C2        C        0.722222        0.333334        0.768166        0        
C3        C        0.666667        0.354166        0.768166        0        
C4        C        0.722222        0.291666        0.768166        0        
C_FG        C        0.666667        0.395833        0.768166        0.2        
C2        C        0.722222        0.458334        0.768166        0        
C3        C        0.666667        0.479166        0.768166        0        
C4        C        0.722222        0.416666        0.768166        0        
C_FG        C        0.666667        0.520834        0.768166        0.2        
C2        C        0.722222        0.583334        0.768166        0        
C3        C        0.666667        0.604166        0.768166        0        
C4        C        0.722222        0.541666        0.768166        0        
C_FG        C        0.666667        0.645834        0.768166        0.2        
C2        C        0.722222        0.708334        0.768166        0        
C3        C        0.666667        0.729166        0.768166        0        
C4        C        0.722222        0.666666        0.768166        0        
C1        C        0.777778        0.020834        0.768166        0        
C2        C        0.833333        0.083334        0.768166        0        
C3        C        0.777778        0.104166        0.768166        0        
C4        C        0.833333        0.041666        0.768166        0        
C1        C        0.777778        0.145834        0.768166        0        
C2        C        0.833333        0.208334        0.768166        0        
C3        C        0.777778        0.229166        0.768166        0        
C4        C        0.833333        0.166666        0.768166        0        
C1        C        0.777778        0.270834        0.768166        0        
C2        C        0.833333        0.333334        0.768166        0        
C3        C        0.777778        0.354166        0.768166        0        
C4        C        0.833333        0.291666        0.768166        0        
C1        C        0.777778        0.395833        0.768166        0        
C2        C        0.833333        0.458334        0.768166        0        
C3        C        0.777778        0.479166        0.768166        0        
C4        C        0.833333        0.416666        0.768166        0        
C1        C        0.777778        0.520834        0.768166        0        
C2        C        0.833333        0.583334        0.768166        0        
C3        C        0.777778        0.604166        0.768166        0        
C4        C        0.833333        0.541666        0.768166        0        
C1        C        0.777778        0.645834        0.768166        0        
C2        C        0.833333        0.708334        0.768166        0        
C3        C        0.777778        0.729166        0.768166        0        
C4        C        0.833333        0.666666        0.768166        0        
C_FG        C        0.888889        0.020834        0.768166        0.2        
C2        C        0.944444        0.083334        0.768166        0        
C3        C        0.888889        0.104166        0.768166        0        
C4        C        0.944444        0.041666        0.768166        0        
C_FG        C        0.888889        0.145834        0.768166        0.2        
C2        C        0.944444        0.208334        0.768166        0        
C3        C        0.888889        0.229166        0.768166        0        
C4        C        0.944444        0.166666        0.768166        0        
C_FG        C        0.888889        0.270834        0.768166        0.2        
C2        C        0.944444        0.333334        0.768166        0        
C3        C        0.888889        0.354166        0.768166        0        
C4        C        0.944444        0.291666        0.768166        0        
C_FG        C        0.888889        0.395833        0.768166        0.2        
C2        C        0.944444        0.458334        0.768166        0        
C3        C        0.888889        0.479166        0.768166        0        
C4        C        0.944444        0.416666        0.768166        0        
C_FG        C        0.888889        0.520834        0.768166        0.2        
C2        C        0.944444        0.583334        0.768166        0        
C3        C        0.888889        0.604166        0.768166        0        
C4        C        0.944444        0.541666        0.768166        0        
C_FG        C        0.888889        0.645834        0.768166        0.2        
C2        C        0.944444        0.708334        0.768166        0        
C3        C        0.888889        0.729166        0.768166        0        
C4        C        0.944444        0.666666        0.768166        0        
C1        C        0.0        0.770834        0.768166        0        
C_FG        C        0.11111100000000002        0.770834        0.768166        0.2        
C1        C        0.22222200000000003        0.770834        0.768166        0        
C_FG        C        0.333333        0.770834        0.768166        0.2        
C1        C        0.44444400000000006        0.770834        0.768166        0        
C1        C        0.555556        0.770834        0.768166        0        
C_FG        C        0.666667        0.770834        0.768166        0.2        
C1        C        0.777778        0.770834        0.768166        0        
C_FG        C        0.888889        0.770834        0.768166        0.2        
C2        C        0.055556        0.833334        0.768166        0        
C2        C        0.166667        0.833334        0.768166        0        
C2        C        0.277778        0.833334        0.768166        0        
C2        C        0.388889        0.833334        0.768166        0        
C2        C        0.5        0.833334        0.768166        0        
C2        C        0.611111        0.833334        0.768166        0        
C2        C        0.722222        0.833334        0.768166        0        
C2        C        0.833333        0.833334        0.768166        0        
C2        C        0.944444        0.833334        0.768166        0        
C3        C        0.0        0.854167        0.768166        0        
C3        C        0.11111100000000002        0.854167        0.768166        0        
C3        C        0.22222200000000003        0.854167        0.768166        0        
C3        C        0.333333        0.854167        0.768166        0        
C3        C        0.44444400000000006        0.854167        0.768166        0        
C3        C        0.555556        0.854167        0.768166        0        
C3        C        0.666667        0.854167        0.768166        0        
C3        C        0.777778        0.854167        0.768166        0        
C3        C        0.888889        0.854167        0.768166        0        
C4        C        0.055556        0.791666        0.768166        0        
C4        C        0.166667        0.791666        0.768166        0        
C4        C        0.277778        0.791666        0.768166        0        
C4        C        0.388889        0.791666        0.768166        0        
C4        C        0.5        0.791666        0.768166        0        
C4        C        0.611111        0.791666        0.768166        0        
C4        C        0.722222        0.791666        0.768166        0        
C4        C        0.833333        0.791666        0.768166        0        
C4        C        0.944444        0.791666        0.768166        0        
C1        C        0.0        0.895834        0.768166        0        
C_FG        C        0.11111100000000002        0.895834        0.768166        0.2        
C1        C        0.22222200000000003        0.895834        0.768166        0        
C_FG        C        0.333333        0.895834        0.768166        0.2        
C1        C        0.44444400000000006        0.895834        0.768166        0        
C1        C        0.555556        0.895834        0.768166        0        
C_FG        C        0.666667        0.895834        0.768166        0.2        
C1        C        0.777778        0.895834        0.768166        0        
C_FG        C        0.888889        0.895834        0.768166        0.2        
C2        C        0.055556        0.958334        0.768166        0        
C2        C        0.166667        0.958334        0.768166        0        
C2        C        0.277778        0.958334        0.768166        0        
C2        C        0.388889        0.958334        0.768166        0        
C2        C        0.5        0.958334        0.768166        0        
C2        C        0.611111        0.958334        0.768166        0        
C2        C        0.722222        0.958334        0.768166        0        
C2        C        0.833333        0.958334        0.768166        0        
C2        C        0.944444        0.958334        0.768166        0        
C3        C        0.0        0.979167        0.768166        0        
C3        C        0.11111100000000002        0.979167        0.768166        0        
C3        C        0.22222200000000003        0.979167        0.768166        0        
C3        C        0.333333        0.979167        0.768166        0        
C3        C        0.44444400000000006        0.979167        0.768166        0        
C3        C        0.555556        0.979167        0.768166        0        
C3        C        0.666667        0.979167        0.768166        0        
C3        C        0.777778        0.979167        0.768166        0        
C3        C        0.888889        0.979167        0.768166        0        
C4        C        0.055556        0.916666        0.768166        0        
C4        C        0.166667        0.916666        0.768166        0        
C4        C        0.277778        0.916666        0.768166        0        
C4        C        0.388889        0.916666        0.768166        0        
C4        C        0.5        0.916666        0.768166        0        
C4        C        0.611111        0.916666        0.768166        0        
C4        C        0.722222        0.916666        0.768166        0        
C4        C        0.833333        0.916666        0.768166        0        
C4        C        0.944444        0.916666        0.768166        0        
C1        C        0.0        0.020834        0.884083        0        
C2        C        0.055556        0.083334        0.884083        0        
C3        C        0.0        0.104166        0.884083        0        
C4        C        0.055556        0.041666        0.884083        0        
C1        C        0.0        0.145834        0.884083        0        
C2        C        0.055556        0.208334        0.884083        0        
C3        C        0.0        0.229166        0.884083        0        
C4        C        0.055556        0.166666        0.884083        0        
C1        C        0.0        0.270834        0.884083        0        
C2        C        0.055556        0.333334        0.884083        0        
C3        C        0.0        0.354166        0.884083        0        
C4        C        0.055556        0.291666        0.884083        0        
C1        C        0.0        0.395833        0.884083        0        
C2        C        0.055556        0.458334        0.884083        0        
C3        C        0.0        0.479166        0.884083        0        
C4        C        0.055556        0.416666        0.884083        0        
C1        C        0.0        0.520834        0.884083        0        
C2        C        0.055556        0.583334        0.884083        0        
C3        C        0.0        0.604166        0.884083        0        
C4        C        0.055556        0.541666        0.884083        0        
C1        C        0.0        0.645834        0.884083        0        
C2        C        0.055556        0.708334        0.884083        0        
C3        C        0.0        0.729166        0.884083        0        
C4        C        0.055556        0.666666        0.884083        0        
C1        C        0.11111100000000002        0.020834        0.884083        0        
C2        C        0.166667        0.083334        0.884083        0        
C3        C        0.11111100000000002        0.104166        0.884083        0        
C4        C        0.166667        0.041666        0.884083        0        
C1        C        0.11111100000000002        0.145834        0.884083        0        
C2        C        0.166667        0.208334        0.884083        0        
C3        C        0.11111100000000002        0.229166        0.884083        0        
C4        C        0.166667        0.166666        0.884083        0        
C1        C        0.11111100000000002        0.270834        0.884083        0        
C2        C        0.166667        0.333334        0.884083        0        
C3        C        0.11111100000000002        0.354166        0.884083        0        
C4        C        0.166667        0.291666        0.884083        0        
C1        C        0.11111100000000002        0.395833        0.884083        0        
C2        C        0.166667        0.458334        0.884083        0        
C3        C        0.11111100000000002        0.479166        0.884083        0        
C4        C        0.166667        0.416666        0.884083        0        
C1        C        0.11111100000000002        0.520834        0.884083        0        
C2        C        0.166667        0.583334        0.884083        0        
C3        C        0.11111100000000002        0.604166        0.884083        0        
C4        C        0.166667        0.541666        0.884083        0        
C1        C        0.11111100000000002        0.645834        0.884083        0        
C2        C        0.166667        0.708334        0.884083        0        
C3        C        0.11111100000000002        0.729166        0.884083        0        
C4        C        0.166667        0.666666        0.884083        0        
C1        C        0.22222200000000003        0.020834        0.884083        0        
C2        C        0.277778        0.083334        0.884083        0        
C3        C        0.22222200000000003        0.104166        0.884083        0        
C4        C        0.277778        0.041666        0.884083        0        
C1        C        0.22222200000000003        0.145834        0.884083        0        
C2        C        0.277778        0.208334        0.884083        0        
C3        C        0.22222200000000003        0.229166        0.884083        0        
C4        C        0.277778        0.166666        0.884083        0        
C1        C        0.22222200000000003        0.270834        0.884083        0        
C2        C        0.277778        0.333334        0.884083        0        
C3        C        0.22222200000000003        0.354166        0.884083        0        
C4        C        0.277778        0.291666        0.884083        0        
C1        C        0.22222200000000003        0.395833        0.884083        0        
C2        C        0.277778        0.458334        0.884083        0        
C3        C        0.22222200000000003        0.479166        0.884083        0        
C4        C        0.277778        0.416666        0.884083        0        
C1        C        0.22222200000000003        0.520834        0.884083        0        
C2        C        0.277778        0.583334        0.884083        0        
C3        C        0.22222200000000003        0.604166        0.884083        0        
C4        C        0.277778        0.541666        0.884083        0        
C1        C        0.22222200000000003        0.645834        0.884083        0        
C2        C        0.277778        0.708334        0.884083        0        
C3        C        0.22222200000000003        0.729166        0.884083        0        
C4        C        0.277778        0.666666        0.884083        0        
C1        C        0.333333        0.020834        0.884083        0        
C2        C        0.388889        0.083334        0.884083        0        
C3        C        0.333333        0.104166        0.884083        0        
C4        C        0.388889        0.041666        0.884083        0        
C1        C        0.333333        0.145834        0.884083        0        
C2        C        0.388889        0.208334        0.884083        0        
C3        C        0.333333        0.229166        0.884083        0        
C4        C        0.388889        0.166666        0.884083        0        
C1        C        0.333333        0.270834        0.884083        0        
C2        C        0.388889        0.333334        0.884083        0        
C3        C        0.333333        0.354166        0.884083        0        
C4        C        0.388889        0.291666        0.884083        0        
C1        C        0.333333        0.395833        0.884083        0        
C2        C        0.388889        0.458334        0.884083        0        
C3        C        0.333333        0.479166        0.884083        0        
C4        C        0.388889        0.416666        0.884083        0        
C1        C        0.333333        0.520834        0.884083        0        
C2        C        0.388889        0.583334        0.884083        0        
C3        C        0.333333        0.604166        0.884083        0        
C4        C        0.388889        0.541666        0.884083        0        
C1        C        0.333333        0.645834        0.884083        0        
C2        C        0.388889        0.708334        0.884083        0        
C3        C        0.333333        0.729166        0.884083        0        
C4        C        0.388889        0.666666        0.884083        0        
C1        C        0.44444400000000006        0.020834        0.884083        0        
C2        C        0.5        0.083334        0.884083        0        
C3        C        0.44444400000000006        0.104166        0.884083        0        
C4        C        0.5        0.041666        0.884083        0        
C1        C        0.44444400000000006        0.145834        0.884083        0        
C2        C        0.5        0.208334        0.884083        0        
C3        C        0.44444400000000006        0.229166        0.884083        0        
C4        C        0.5        0.166666        0.884083        0        
C1        C        0.44444400000000006        0.270834        0.884083        0        
C2        C        0.5        0.333334        0.884083        0        
C3        C        0.44444400000000006        0.354166        0.884083        0        
C4        C        0.5        0.291666        0.884083        0        
C1        C        0.44444400000000006        0.395833        0.884083        0        
C2        C        0.5        0.458334        0.884083        0        
C3        C        0.44444400000000006        0.479166        0.884083        0        
C4        C        0.5        0.416666        0.884083        0        
C1        C        0.44444400000000006        0.520834        0.884083        0        
C2        C        0.5        0.583334        0.884083        0        
C3        C        0.44444400000000006        0.604166        0.884083        0        
C4        C        0.5        0.541666        0.884083        0        
C1        C        0.44444400000000006        0.645834        0.884083        0        
C2        C        0.5        0.708334        0.884083        0        
C3        C        0.44444400000000006        0.729166        0.884083        0        
C4        C        0.5        0.666666        0.884083        0        
C1        C        0.555556        0.020834        0.884083        0        
C2        C        0.611111        0.083334        0.884083        0        
C3        C        0.555556        0.104166        0.884083        0        
C4        C        0.611111        0.041666        0.884083        0        
C1        C        0.555556        0.145834        0.884083        0        
C2        C        0.611111        0.208334        0.884083        0        
C3        C        0.555556        0.229166        0.884083        0        
C4        C        0.611111        0.166666        0.884083        0        
C1        C        0.555556        0.270834        0.884083        0        
C2        C        0.611111        0.333334        0.884083        0        
C3        C        0.555556        0.354166        0.884083        0        
C4        C        0.611111        0.291666        0.884083        0        
C1        C        0.555556        0.395833        0.884083        0        
C2        C        0.611111        0.458334        0.884083        0        
C3        C        0.555556        0.479166        0.884083        0        
C4        C        0.611111        0.416666        0.884083        0        
C1        C        0.555556        0.520834        0.884083        0        
C2        C        0.611111        0.583334        0.884083        0        
C3        C        0.555556        0.604166        0.884083        0        
C4        C        0.611111        0.541666        0.884083        0        
C1        C        0.555556        0.645834        0.884083        0        
C2        C        0.611111        0.708334        0.884083        0        
C3        C        0.555556        0.729166        0.884083        0        
C4        C        0.611111        0.666666        0.884083        0        
C1        C        0.666667        0.020834        0.884083        0        
C2        C        0.722222        0.083334        0.884083        0        
C3        C        0.666667        0.104166        0.884083        0        
C4        C        0.722222        0.041666        0.884083        0        
C1        C        0.666667        0.145834        0.884083        0        
C2        C        0.722222        0.208334        0.884083        0        
C3        C        0.666667        0.229166        0.884083        0        
C4        C        0.722222        0.166666        0.884083        0        
C1        C        0.666667        0.270834        0.884083        0        
C2        C        0.722222        0.333334        0.884083        0        
C3        C        0.666667        0.354166        0.884083        0        
C4        C        0.722222        0.291666        0.884083        0        
C1        C        0.666667        0.395833        0.884083        0        
C2        C        0.722222        0.458334        0.884083        0        
C3        C        0.666667        0.479166        0.884083        0        
C4        C        0.722222        0.416666        0.884083        0        
C1        C        0.666667        0.520834        0.884083        0        
C2        C        0.722222        0.583334        0.884083        0        
C3        C        0.666667        0.604166        0.884083        0        
C4        C        0.722222        0.541666        0.884083        0        
C1        C        0.666667        0.645834        0.884083        0        
C2        C        0.722222        0.708334        0.884083        0        
C3        C        0.666667        0.729166        0.884083        0        
C4        C        0.722222        0.666666        0.884083        0        
C1        C        0.777778        0.020834        0.884083        0        
C2        C        0.833333        0.083334        0.884083        0        
C3        C        0.777778        0.104166        0.884083        0        
C4        C        0.833333        0.041666        0.884083        0        
C1        C        0.777778        0.145834        0.884083        0        
C2        C        0.833333        0.208334        0.884083        0        
C3        C        0.777778        0.229166        0.884083        0        
C4        C        0.833333        0.166666        0.884083        0        
C1        C        0.777778        0.270834        0.884083        0        
C2        C        0.833333        0.333334        0.884083        0        
C3        C        0.777778        0.354166        0.884083        0        
C4        C        0.833333        0.291666        0.884083        0        
C1        C        0.777778        0.395833        0.884083        0        
C2        C        0.833333        0.458334        0.884083        0        
C3        C        0.777778        0.479166        0.884083        0        
C4        C        0.833333        0.416666        0.884083        0        
C1        C        0.777778        0.520834        0.884083        0        
C2        C        0.833333        0.583334        0.884083        0        
C3        C        0.777778        0.604166        0.884083        0        
C4        C        0.833333        0.541666        0.884083        0        
C1        C        0.777778        0.645834        0.884083        0        
C2        C        0.833333        0.708334        0.884083        0        
C3        C        0.777778        0.729166        0.884083        0        
C4        C        0.833333        0.666666        0.884083        0        
C1        C        0.888889        0.020834        0.884083        0        
C2        C        0.944444        0.083334        0.884083        0        
C3        C        0.888889        0.104166        0.884083        0        
C4        C        0.944444        0.041666        0.884083        0        
C1        C        0.888889        0.145834        0.884083        0        
C2        C        0.944444        0.208334        0.884083        0        
C3        C        0.888889        0.229166        0.884083        0        
C4        C        0.944444        0.166666        0.884083        0        
C1        C        0.888889        0.270834        0.884083        0        
C2        C        0.944444        0.333334        0.884083        0        
C3        C        0.888889        0.354166        0.884083        0        
C4        C        0.944444        0.291666        0.884083        0        
C1        C        0.888889        0.395833        0.884083        0        
C2        C        0.944444        0.458334        0.884083        0        
C3        C        0.888889        0.479166        0.884083        0        
C4        C        0.944444        0.416666        0.884083        0        
C1        C        0.888889        0.520834        0.884083        0        
C2        C        0.944444        0.583334        0.884083        0        
C3        C        0.888889        0.604166        0.884083        0        
C4        C        0.944444        0.541666        0.884083        0        
C1        C        0.888889        0.645834        0.884083        0        
C2        C        0.944444        0.708334        0.884083        0        
C3        C        0.888889        0.729166        0.884083        0        
C4        C        0.944444        0.666666        0.884083        0        
C1        C        0.0        0.770834        0.884083        0        
C1        C        0.11111100000000002        0.770834        0.884083        0        
C1        C        0.22222200000000003        0.770834        0.884083        0        
C1        C        0.333333        0.770834        0.884083        0        
C1        C        0.44444400000000006        0.770834        0.884083        0        
C1        C        0.555556        0.770834        0.884083        0        
C1        C        0.666667        0.770834        0.884083        0        
C1        C        0.777778        0.770834        0.884083        0        
C1        C        0.888889        0.770834        0.884083        0        
C2        C        0.055556        0.833334        0.884083        0        
C2        C        0.166667        0.833334        0.884083        0        
C2        C        0.277778        0.833334        0.884083        0        
C2        C        0.388889        0.833334        0.884083        0        
C2        C        0.5        0.833334        0.884083        0        
C2        C        0.611111        0.833334        0.884083        0        
C2        C        0.722222        0.833334        0.884083        0        
C2        C        0.833333        0.833334        0.884083        0        
C2        C        0.944444        0.833334        0.884083        0        
C3        C        0.0        0.854167        0.884083        0        
C3        C        0.11111100000000002        0.854167        0.884083        0        
C3        C        0.22222200000000003        0.854167        0.884083        0        
C3        C        0.333333        0.854167        0.884083        0        
C3        C        0.44444400000000006        0.854167        0.884083        0        
C3        C        0.555556        0.854167        0.884083        0        
C3        C        0.666667        0.854167        0.884083        0        
C3        C        0.777778        0.854167        0.884083        0        
C3        C        0.888889        0.854167        0.884083        0        
C4        C        0.055556        0.791666        0.884083        0        
C4        C        0.166667        0.791666        0.884083        0        
C4        C        0.277778        0.791666        0.884083        0        
C4        C        0.388889        0.791666        0.884083        0        
C4        C        0.5        0.791666        0.884083        0        
C4        C        0.611111        0.791666        0.884083        0        
C4        C        0.722222        0.791666        0.884083        0        
C4        C        0.833333        0.791666        0.884083        0        
C4        C        0.944444        0.791666        0.884083        0        
C1        C        0.0        0.895834        0.884083        0        
C1        C        0.11111100000000002        0.895834        0.884083        0        
C1        C        0.22222200000000003        0.895834        0.884083        0        
C1        C        0.333333        0.895834        0.884083        0        
C1        C        0.44444400000000006        0.895834        0.884083        0        
C1        C        0.555556        0.895834        0.884083        0        
C1        C        0.666667        0.895834        0.884083        0        
C1        C        0.777778        0.895834        0.884083        0        
C1        C        0.888889        0.895834        0.884083        0        
C2        C        0.055556        0.958334        0.884083        0        
C2        C        0.166667        0.958334        0.884083        0        
C2        C        0.277778        0.958334        0.884083        0        
C2        C        0.388889        0.958334        0.884083        0        
C2        C        0.5        0.958334        0.884083        0        
C2        C        0.611111        0.958334        0.884083        0        
C2        C        0.722222        0.958334        0.884083        0        
C2        C        0.833333        0.958334        0.884083        0        
C2        C        0.944444        0.958334        0.884083        0        
C3        C        0.0        0.979167        0.884083        0        
C3        C        0.11111100000000002        0.979167        0.884083        0        
C3        C        0.22222200000000003        0.979167        0.884083        0        
C3        C        0.333333        0.979167        0.884083        0        
C3        C        0.44444400000000006        0.979167        0.884083        0        
C3        C        0.555556        0.979167        0.884083        0        
C3        C        0.666667        0.979167        0.884083        0        
C3        C        0.777778        0.979167        0.884083        0        
C3        C        0.888889        0.979167        0.884083        0        
C4        C        0.055556        0.916666        0.884083        0        
C4        C        0.166667        0.916666        0.884083        0        
C4        C        0.277778        0.916666        0.884083        0        
C4        C        0.388889        0.916666        0.884083        0        
C4        C        0.5        0.916666        0.884083        0        
C4        C        0.611111        0.916666        0.884083        0        
C4        C        0.722222        0.916666        0.884083        0        
C4        C        0.833333        0.916666        0.884083        0        
C4        C        0.944444        0.916666        0.884083        0        
C1        C        0.0        0.020834        1.0        0        
C2        C        0.055556        0.083334        1.0        0        
C3        C        0.0        0.104166        1.0        0        
C4        C        0.055556        0.041666        1.0        0        
C1        C        0.0        0.145834        1.0        0        
C2        C        0.055556        0.208334        1.0        0        
C3        C        0.0        0.229166        1.0        0        
C4        C        0.055556        0.166666        1.0        0        
C1        C        0.0        0.270834        1.0        0        
C2        C        0.055556        0.333334        1.0        0        
C3        C        0.0        0.354166        1.0        0        
C4        C        0.055556        0.291666        1.0        0        
C1        C        0.0        0.395833        1.0        0        
C2        C        0.055556        0.458334        1.0        0        
C3        C        0.0        0.479166        1.0        0        
C4        C        0.055556        0.416666        1.0        0        
C1        C        0.0        0.520834        1.0        0        
C2        C        0.055556        0.583334        1.0        0        
C3        C        0.0        0.604166        1.0        0        
C4        C        0.055556        0.541666        1.0        0        
C1        C        0.0        0.645834        1.0        0        
C2        C        0.055556        0.708334        1.0        0        
C3        C        0.0        0.729166        1.0        0        
C4        C        0.055556        0.666666        1.0        0        
C1        C        0.11111100000000002        0.020834        1.0        0        
C2        C        0.166667        0.083334        1.0        0        
C3        C        0.11111100000000002        0.104166        1.0        0        
C4        C        0.166667        0.041666        1.0        0        
C1        C        0.11111100000000002        0.145834        1.0        0        
C2        C        0.166667        0.208334        1.0        0        
C3        C        0.11111100000000002        0.229166        1.0        0        
C4        C        0.166667        0.166666        1.0        0        
C1        C        0.11111100000000002        0.270834        1.0        0        
C2        C        0.166667        0.333334        1.0        0        
C3        C        0.11111100000000002        0.354166        1.0        0        
C4        C        0.166667        0.291666        1.0        0        
C1        C        0.11111100000000002        0.395833        1.0        0        
C2        C        0.166667        0.458334        1.0        0        
C3        C        0.11111100000000002        0.479166        1.0        0        
C4        C        0.166667        0.416666        1.0        0        
C1        C        0.11111100000000002        0.520834        1.0        0        
C2        C        0.166667        0.583334        1.0        0        
C3        C        0.11111100000000002        0.604166        1.0        0        
C4        C        0.166667        0.541666        1.0        0        
C1        C        0.11111100000000002        0.645834        1.0        0        
C2        C        0.166667        0.708334        1.0        0        
C3        C        0.11111100000000002        0.729166        1.0        0        
C4        C        0.166667        0.666666        1.0        0        
C1        C        0.22222200000000003        0.020834        1.0        0        
C2        C        0.277778        0.083334        1.0        0        
C3        C        0.22222200000000003        0.104166        1.0        0        
C4        C        0.277778        0.041666        1.0        0        
C1        C        0.22222200000000003        0.145834        1.0        0        
C2        C        0.277778        0.208334        1.0        0        
C3        C        0.22222200000000003        0.229166        1.0        0        
C4        C        0.277778        0.166666        1.0        0        
C1        C        0.22222200000000003        0.270834        1.0        0        
C2        C        0.277778        0.333334        1.0        0        
C3        C        0.22222200000000003        0.354166        1.0        0        
C4        C        0.277778        0.291666        1.0        0        
C1        C        0.22222200000000003        0.395833        1.0        0        
C2        C        0.277778        0.458334        1.0        0        
C3        C        0.22222200000000003        0.479166        1.0        0        
C4        C        0.277778        0.416666        1.0        0        
C1        C        0.22222200000000003        0.520834        1.0        0        
C2        C        0.277778        0.583334        1.0        0        
C3        C        0.22222200000000003        0.604166        1.0        0        
C4        C        0.277778        0.541666        1.0        0        
C1        C        0.22222200000000003        0.645834        1.0        0        
C2        C        0.277778        0.708334        1.0        0        
C3        C        0.22222200000000003        0.729166        1.0        0        
C4        C        0.277778        0.666666        1.0        0        
C1        C        0.333333        0.020834        1.0        0        
C2        C        0.388889        0.083334        1.0        0        
C3        C        0.333333        0.104166        1.0        0        
C4        C        0.388889        0.041666        1.0        0        
C1        C        0.333333        0.145834        1.0        0        
C2        C        0.388889        0.208334        1.0        0        
C3        C        0.333333        0.229166        1.0        0        
C4        C        0.388889        0.166666        1.0        0        
C1        C        0.333333        0.270834        1.0        0        
C2        C        0.388889        0.333334        1.0        0        
C3        C        0.333333        0.354166        1.0        0        
C4        C        0.388889        0.291666        1.0        0        
C1        C        0.333333        0.395833        1.0        0        
C2        C        0.388889        0.458334        1.0        0        
C3        C        0.333333        0.479166        1.0        0        
C4        C        0.388889        0.416666        1.0        0        
C1        C        0.333333        0.520834        1.0        0        
C2        C        0.388889        0.583334        1.0        0        
C3        C        0.333333        0.604166        1.0        0        
C4        C        0.388889        0.541666        1.0        0        
C1        C        0.333333        0.645834        1.0        0        
C2        C        0.388889        0.708334        1.0        0        
C3        C        0.333333        0.729166        1.0        0        
C4        C        0.388889        0.666666        1.0        0        
C1        C        0.44444400000000006        0.020834        1.0        0        
C2        C        0.5        0.083334        1.0        0        
C3        C        0.44444400000000006        0.104166        1.0        0        
C4        C        0.5        0.041666        1.0        0        
C1        C        0.44444400000000006        0.145834        1.0        0        
C2        C        0.5        0.208334        1.0        0        
C3        C        0.44444400000000006        0.229166        1.0        0        
C4        C        0.5        0.166666        1.0        0        
C1        C        0.44444400000000006        0.270834        1.0        0        
C2        C        0.5        0.333334        1.0        0        
C3        C        0.44444400000000006        0.354166        1.0        0        
C4        C        0.5        0.291666        1.0        0        
C1        C        0.44444400000000006        0.395833        1.0        0        
C2        C        0.5        0.458334        1.0        0        
C3        C        0.44444400000000006        0.479166        1.0        0        
C4        C        0.5        0.416666        1.0        0        
C1        C        0.44444400000000006        0.520834        1.0        0        
C2        C        0.5        0.583334        1.0        0        
C3        C        0.44444400000000006        0.604166        1.0        0        
C4        C        0.5        0.541666        1.0        0        
C1        C        0.44444400000000006        0.645834        1.0        0        
C2        C        0.5        0.708334        1.0        0        
C3        C        0.44444400000000006        0.729166        1.0        0        
C4        C        0.5        0.666666        1.0        0        
C1        C        0.555556        0.020834        1.0        0        
C2        C        0.611111        0.083334        1.0        0        
C3        C        0.555556        0.104166        1.0        0        
C4        C        0.611111        0.041666        1.0        0        
C1        C        0.555556        0.145834        1.0        0        
C2        C        0.611111        0.208334        1.0        0        
C3        C        0.555556        0.229166        1.0        0        
C4        C        0.611111        0.166666        1.0        0        
C1        C        0.555556        0.270834        1.0        0        
C2        C        0.611111        0.333334        1.0        0        
C3        C        0.555556        0.354166        1.0        0        
C4        C        0.611111        0.291666        1.0        0        
C1        C        0.555556        0.395833        1.0        0        
C2        C        0.611111        0.458334        1.0        0        
C3        C        0.555556        0.479166        1.0        0        
C4        C        0.611111        0.416666        1.0        0        
C1        C        0.555556        0.520834        1.0        0        
C2        C        0.611111        0.583334        1.0        0        
C3        C        0.555556        0.604166        1.0        0        
C4        C        0.611111        0.541666        1.0        0        
C1        C        0.555556        0.645834        1.0        0        
C2        C        0.611111        0.708334        1.0        0        
C3        C        0.555556        0.729166        1.0        0        
C4        C        0.611111        0.666666        1.0        0        
C1        C        0.666667        0.020834        1.0        0        
C2        C        0.722222        0.083334        1.0        0        
C3        C        0.666667        0.104166        1.0        0        
C4        C        0.722222        0.041666        1.0        0        
C1        C        0.666667        0.145834        1.0        0        
C2        C        0.722222        0.208334        1.0        0        
C3        C        0.666667        0.229166        1.0        0        
C4        C        0.722222        0.166666        1.0        0        
C1        C        0.666667        0.270834        1.0        0        
C2        C        0.722222        0.333334        1.0        0        
C3        C        0.666667        0.354166        1.0        0        
C4        C        0.722222        0.291666        1.0        0        
C1        C        0.666667        0.395833        1.0        0        
C2        C        0.722222        0.458334        1.0        0        
C3        C        0.666667        0.479166        1.0        0        
C4        C        0.722222        0.416666        1.0        0        
C1        C        0.666667        0.520834        1.0        0        
C2        C        0.722222        0.583334        1.0        0        
C3        C        0.666667        0.604166        1.0        0        
C4        C        0.722222        0.541666        1.0        0        
C1        C        0.666667        0.645834        1.0        0        
C2        C        0.722222        0.708334        1.0        0        
C3        C        0.666667        0.729166        1.0        0        
C4        C        0.722222        0.666666        1.0        0        
C1        C        0.777778        0.020834        1.0        0        
C2        C        0.833333        0.083334        1.0        0        
C3        C        0.777778        0.104166        1.0        0        
C4        C        0.833333        0.041666        1.0        0        
C1        C        0.777778        0.145834        1.0        0        
C2        C        0.833333        0.208334        1.0        0        
C3        C        0.777778        0.229166        1.0        0        
C4        C        0.833333        0.166666        1.0        0        
C1        C        0.777778        0.270834        1.0        0        
C2        C        0.833333        0.333334        1.0        0        
C3        C        0.777778        0.354166        1.0        0        
C4        C        0.833333        0.291666        1.0        0        
C1        C        0.777778        0.395833        1.0        0        
C2        C        0.833333        0.458334        1.0        0        
C3        C        0.777778        0.479166        1.0        0        
C4        C        0.833333        0.416666        1.0        0        
C1        C        0.777778        0.520834        1.0        0        
C2        C        0.833333        0.583334        1.0        0        
C3        C        0.777778        0.604166        1.0        0        
C4        C        0.833333        0.541666        1.0        0        
C1        C        0.777778        0.645834        1.0        0        
C2        C        0.833333        0.708334        1.0        0        
C3        C        0.777778        0.729166        1.0        0        
C4        C        0.833333        0.666666        1.0        0        
C1        C        0.888889        0.020834        1.0        0        
C2        C        0.944444        0.083334        1.0        0        
C3        C        0.888889        0.104166        1.0        0        
C4        C        0.944444        0.041666        1.0        0        
C1        C        0.888889        0.145834        1.0        0        
C2        C        0.944444        0.208334        1.0        0        
C3        C        0.888889        0.229166        1.0        0        
C4        C        0.944444        0.166666        1.0        0        
C1        C        0.888889        0.270834        1.0        0        
C2        C        0.944444        0.333334        1.0        0        
C3        C        0.888889        0.354166        1.0        0        
C4        C        0.944444        0.291666        1.0        0        
C1        C        0.888889        0.395833        1.0        0        
C2        C        0.944444        0.458334        1.0        0        
C3        C        0.888889        0.479166        1.0        0        
C4        C        0.944444        0.416666        1.0        0        
C1        C        0.888889        0.520834        1.0        0        
C2        C        0.944444        0.583334        1.0        0        
C3        C        0.888889        0.604166        1.0        0        
C4        C        0.944444        0.541666        1.0        0        
C1        C        0.888889        0.645834        1.0        0        
C2        C        0.944444        0.708334        1.0        0        
C3        C        0.888889        0.729166        1.0        0        
C4        C        0.944444        0.666666        1.0        0        
C1        C        0.0        0.770834        1.0        0        
C1        C        0.11111100000000002        0.770834        1.0        0        
C1        C        0.22222200000000003        0.770834        1.0        0        
C1        C        0.333333        0.770834        1.0        0        
C1        C        0.44444400000000006        0.770834        1.0        0        
C1        C        0.555556        0.770834        1.0        0        
C1        C        0.666667        0.770834        1.0        0        
C1        C        0.777778        0.770834        1.0        0        
C1        C        0.888889        0.770834        1.0        0        
C2        C        0.055556        0.833334        1.0        0        
C2        C        0.166667        0.833334        1.0        0        
C2        C        0.277778        0.833334        1.0        0        
C2        C        0.388889        0.833334        1.0        0        
C2        C        0.5        0.833334        1.0        0        
C2        C        0.611111        0.833334        1.0        0        
C2        C        0.722222        0.833334        1.0        0        
C2        C        0.833333        0.833334        1.0        0        
C2        C        0.944444        0.833334        1.0        0        
C3        C        0.0        0.854167        1.0        0        
C3        C        0.11111100000000002        0.854167        1.0        0        
C3        C        0.22222200000000003        0.854167        1.0        0        
C3        C        0.333333        0.854167        1.0        0        
C3        C        0.44444400000000006        0.854167        1.0        0        
C3        C        0.555556        0.854167        1.0        0        
C3        C        0.666667        0.854167        1.0        0        
C3        C        0.777778        0.854167        1.0        0        
C3        C        0.888889        0.854167        1.0        0        
C4        C        0.055556        0.791666        1.0        0        
C4        C        0.166667        0.791666        1.0        0        
C4        C        0.277778        0.791666        1.0        0        
C4        C        0.388889        0.791666        1.0        0        
C4        C        0.5        0.791666        1.0        0        
C4        C        0.611111        0.791666        1.0        0        
C4        C        0.722222        0.791666        1.0        0        
C4        C        0.833333        0.791666        1.0        0        
C4        C        0.944444        0.791666        1.0        0        
C1        C        0.0        0.895834        1.0        0        
C1        C        0.11111100000000002        0.895834        1.0        0        
C1        C        0.22222200000000003        0.895834        1.0        0        
C1        C        0.333333        0.895834        1.0        0        
C1        C        0.44444400000000006        0.895834        1.0        0        
C1        C        0.555556        0.895834        1.0        0        
C1        C        0.666667        0.895834        1.0        0        
C1        C        0.777778        0.895834        1.0        0        
C1        C        0.888889        0.895834        1.0        0        
C2        C        0.055556        0.958334        1.0        0        
C2        C        0.166667        0.958334        1.0        0        
C2        C        0.277778        0.958334        1.0        0        
C2        C        0.388889        0.958334        1.0        0        
C2        C        0.5        0.958334        1.0        0        
C2        C        0.611111        0.958334        1.0        0        
C2        C        0.722222        0.958334        1.0        0        
C2        C        0.833333        0.958334        1.0        0        
C2        C        0.944444        0.958334        1.0        0        
C3        C        0.0        0.979167        1.0        0        
C3        C        0.11111100000000002        0.979167        1.0        0        
C3        C        0.22222200000000003        0.979167        1.0        0        
C3        C        0.333333        0.979167        1.0        0        
C3        C        0.44444400000000006        0.979167        1.0        0        
C3        C        0.555556        0.979167        1.0        0        
C3        C        0.666667        0.979167        1.0        0        
C3        C        0.777778        0.979167        1.0        0        
C3        C        0.888889        0.979167        1.0        0        
C4        C        0.055556        0.916666        1.0        0        
C4        C        0.166667        0.916666        1.0        0        
C4        C        0.277778        0.916666        1.0        0        
C4        C        0.388889        0.916666        1.0        0        
C4        C        0.5        0.916666        1.0        0        
C4        C        0.611111        0.916666        1.0        0        
C4        C        0.722222        0.916666        1.0        0        
C4        C        0.833333        0.916666        1.0        0        
C4        C        0.944444        0.916666        1.0        0        
O_OH        O        0.11111100000000002        0.020834        0.28141868512110724        -0.64        
O_OH        O        0.11111100000000002        0.145834        0.28141868512110724        -0.64        
O_OH        O        0.11111100000000002        0.270834        0.28141868512110724        -0.64        
O_OH        O        0.11111100000000002        0.395833        0.28141868512110724        -0.64        
O_OH        O        0.11111100000000002        0.520834        0.28141868512110724        -0.64        
O_OH        O        0.11111100000000002        0.645834        0.28141868512110724        -0.64        
O_OH        O        0.333333        0.020834        0.28141868512110724        -0.64        
O_OH        O        0.333333        0.145834        0.28141868512110724        -0.64        
O_OH        O        0.333333        0.270834        0.28141868512110724        -0.64        
O_OH        O        0.333333        0.395833        0.28141868512110724        -0.64        
O_OH        O        0.333333        0.520834        0.28141868512110724        -0.64        
O_OH        O        0.333333        0.645834        0.28141868512110724        -0.64        
O_OH        O        0.666667        0.020834        0.28141868512110724        -0.64        
O_OH        O        0.666667        0.145834        0.28141868512110724        -0.64        
O_OH        O        0.666667        0.270834        0.28141868512110724        -0.64        
O_OH        O        0.666667        0.395833        0.28141868512110724        -0.64        
O_OH        O        0.666667        0.520834        0.28141868512110724        -0.64        
O_OH        O        0.666667        0.645834        0.28141868512110724        -0.64        
O_OH        O        0.888889        0.020834        0.28141868512110724        -0.64        
O_OH        O        0.888889        0.145834        0.28141868512110724        -0.64        
O_OH        O        0.888889        0.270834        0.28141868512110724        -0.64        
O_OH        O        0.888889        0.395833        0.28141868512110724        -0.64        
O_OH        O        0.888889        0.520834        0.28141868512110724        -0.64        
O_OH        O        0.888889        0.645834        0.28141868512110724        -0.64        
O_OH        O        0.11111100000000002        0.770834        0.28141868512110724        -0.64        
O_OH        O        0.333333        0.770834        0.28141868512110724        -0.64        
O_OH        O        0.666667        0.770834        0.28141868512110724        -0.64        
O_OH        O        0.888889        0.770834        0.28141868512110724        -0.64        
O_OH        O        0.11111100000000002        0.895834        0.28141868512110724        -0.64        
O_OH        O        0.333333        0.895834        0.28141868512110724        -0.64        
O_OH        O        0.666667        0.895834        0.28141868512110724        -0.64        
O_OH        O        0.888889        0.895834        0.28141868512110724        -0.64        
O_OH        O        0.11111100000000002        0.020834        0.7185813148788928        -0.64        
O_OH        O        0.11111100000000002        0.145834        0.7185813148788928        -0.64        
O_OH        O        0.11111100000000002        0.270834        0.7185813148788928        -0.64        
O_OH        O        0.11111100000000002        0.395833        0.7185813148788928        -0.64        
O_OH        O        0.11111100000000002        0.520834        0.7185813148788928        -0.64        
O_OH        O        0.11111100000000002        0.645834        0.7185813148788928        -0.64        
O_OH        O        0.333333        0.020834        0.7185813148788928        -0.64        
O_OH        O        0.333333        0.145834        0.7185813148788928        -0.64        
O_OH        O        0.333333        0.270834        0.7185813148788928        -0.64        
O_OH        O        0.333333        0.395833        0.7185813148788928        -0.64        
O_OH        O        0.333333        0.520834        0.7185813148788928        -0.64        
O_OH        O        0.333333        0.645834        0.7185813148788928        -0.64        
O_OH        O        0.666667        0.020834        0.7185813148788928        -0.64        
O_OH        O        0.666667        0.145834        0.7185813148788928        -0.64        
O_OH        O        0.666667        0.270834        0.7185813148788928        -0.64        
O_OH        O        0.666667        0.395833        0.7185813148788928        -0.64        
O_OH        O        0.666667        0.520834        0.7185813148788928        -0.64        
O_OH        O        0.666667        0.645834        0.7185813148788928        -0.64        
O_OH        O        0.888889        0.020834        0.7185813148788928        -0.64        
O_OH        O        0.888889        0.145834        0.7185813148788928        -0.64        
O_OH        O        0.888889        0.270834        0.7185813148788928        -0.64        
O_OH        O        0.888889        0.395833        0.7185813148788928        -0.64        
O_OH        O        0.888889        0.520834        0.7185813148788928        -0.64        
O_OH        O        0.888889        0.645834        0.7185813148788928        -0.64        
O_OH        O        0.11111100000000002        0.770834        0.7185813148788928        -0.64        
O_OH        O        0.333333        0.770834        0.7185813148788928        -0.64        
O_OH        O        0.666667        0.770834        0.7185813148788928        -0.64        
O_OH        O        0.888889        0.770834        0.7185813148788928        -0.64        
O_OH        O        0.11111100000000002        0.895834        0.7185813148788928        -0.64        
O_OH        O        0.333333        0.895834        0.7185813148788928        -0.64        
O_OH        O        0.666667        0.895834        0.7185813148788928        -0.64        
O_OH        O        0.888889        0.895834        0.7185813148788928        -0.64        
H_OH        H        0.08162077931398805        0.03897611360099684        0.29305186851211074        0.44        
H_OH        H        0.1080399271257469        0.1721435934520928        0.29305186851211074        0.44        
H_OH        H        0.10526924980558774        0.29694477475255326        0.29305186851211074        0.44        
H_OH        H        0.14435686059201894        0.4109887625392532        0.29305186851211074        0.44        
H_OH        H        0.12447817488246225        0.5457491377211733        0.29305186851211074        0.44        
H_OH        H        0.1289910149578428        0.6695247236083637        0.29305186851211074        0.44        
H_OH        H        0.2977503575981284        0.033554732152106054        0.29305186851211074        0.44        
H_OH        H        0.37214662899306283        0.15360376731448055        0.29305186851211074        0.44        
H_OH        H        0.29336316277819546        0.2755164571709138        0.29305186851211074        0.44        
H_OH        H        0.2956459103385139        0.4056687179274904        0.29305186851211074        0.44        
H_OH        H        0.3494562819945567        0.5450509561510148        0.29305186851211074        0.44        
H_OH        H        0.3344638412476695        0.6722089025947076        0.29305186851211074        0.44        
H_OH        H        0.6483156107226914        0.044372107650323685        0.29305186851211074        0.44        
H_OH        H        0.6442566195516314        0.16783888351163817        0.29305186851211074        0.44        
H_OH        H        0.7017068576625971        0.28417548038954815        0.29305186851211074        0.44        
H_OH        H        0.7069952740482529        0.3989600218712675        0.29305186851211074        0.44        
H_OH        H        0.6343658083169953        0.5368286901467044        0.29305186851211074        0.44        
H_OH        H        0.7054104577277932        0.6537501958319403        0.29305186851211074        0.44        
H_OH        H        0.9295016320461472        0.021087882934665347        0.29305186851211074        0.44        
H_OH        H        0.8830598076774961        0.17194595920719868        0.29305186851211074        0.44        
H_OH        H        0.9183137500308575        0.28902092355789294        0.29305186851211074        0.44        
H_OH        H        0.8503692355299364        0.4041972348952464        0.29305186851211074        0.44        
H_OH        H        0.9292624465156697        0.5237044898625091        0.29305186851211074        0.44        
H_OH        H        0.9011749077142752        0.6709829687642773        0.29305186851211074        0.44        
H_OH        H        0.09371430373281459        0.794676109026619        0.29305186851211074        0.44        
H_OH        H        0.35346629120181283        0.7937490728740085        0.29305186851211074        0.44        
H_OH        H        0.707150686625851        0.7729500702304015        0.29305186851211074        0.44        
H_OH        H        0.9238798581959626        0.7842296457023067        0.29305186851211074        0.44        
H_OH        H        0.1285109511012609        0.9196751065903263        0.29305186851211074        0.44        
H_OH        H        0.36625391924721706        0.9112862226666069        0.29305186851211074        0.44        
H_OH        H        0.6651092128263545        0.9221997168474123        0.29305186851211074        0.44        
H_OH        H        0.8790892973558462        0.9214395600456217        0.29305186851211074        0.44        
H_OH        H        0.08952457775473004        0.04318382279098821        0.7069481314878893        0.44        
H_OH        H        0.0750157991306864        0.15792993218794193        0.7069481314878893        0.44        
H_OH        H        0.14283667807283468        0.28730766600921404        0.7069481314878893        0.44        
H_OH        H        0.11869372320093464        0.42175420238753475        0.7069481314878893        0.44        
H_OH        H        0.08825470979621272        0.5426444570392435        0.7069481314878893        0.44        
H_OH        H        0.10209986023230887        0.6715615160939102        0.7069481314878893        0.44        
H_OH        H        0.34977038302965957        0.044961672803796426        0.7069481314878893        0.44        
H_OH        H        0.36949137087811257        0.15785004198042724        0.7069481314878893        0.44        
H_OH        H        0.32004788202599876        0.2957676538909068        0.7069481314878893        0.44        
H_OH        H        0.3197213194400036        0.42069220538065666        0.7069481314878893        0.44        
H_OH        H        0.34694262232068684        0.5456936809780271        0.7069481314878893        0.44        
H_OH        H        0.3721104006646155        0.6536797403997078        0.7069481314878893        0.44        
H_OH        H        0.7063955931999013        0.026314868255611232        0.7069481314878893        0.44        
H_OH        H        0.6623220869602963        0.17206771429702716        0.7069481314878893        0.44        
H_OH        H        0.6283901077337075        0.2796562595810706        0.7069481314878893        0.44        
H_OH        H        0.6348140255030857        0.41220266528024246        0.7069481314878893        0.44        
H_OH        H        0.6280568477007851        0.529020459083241        0.7069481314878893        0.44        
H_OH        H        0.629632671853033        0.6566657393023599        0.7069481314878893        0.44        
H_OH        H        0.8688693592166864        0.04379105799883091        0.7069481314878893        0.44        
H_OH        H        0.8801364146734463        0.17159916016995913        0.7069481314878893        0.44        
H_OH        H        0.9174069186853133        0.28962069953742886        0.7069481314878893        0.44        
H_OH        H        0.9270730625872183        0.4048234313508811        0.7069481314878893        0.44        
H_OH        H        0.8626332795458955        0.5409644460094294        0.7069481314878893        0.44        
H_OH        H        0.869110838839032        0.6688792270628475        0.7069481314878893        0.44        
H_OH        H        0.07781227360042457        0.7859407012017784        0.7069481314878893        0.44        
H_OH        H        0.29400317190695213        0.7774177007085139        0.7069481314878893        0.44        
H_OH        H        0.6932862268147201        0.7907619462518035        0.7069481314878893        0.44        
H_OH        H        0.8574871650975354        0.787567489140238        0.7069481314878893        0.44        
H_OH        H        0.14700380742046854        0.9081814973686436        0.7069481314878893        0.44        
H_OH        H        0.3298125827163331        0.9221198266317461        0.7069481314878893        0.44        
H_OH        H        0.6288107691612788        0.905391651725762        0.7069481314878893        0.44        
H_OH        H        0.8483680210722677        0.8976236441874091        0.7069481314878893        0.44        
