data_graphite_ortho

_audit_creation_method RASPA-1.0
_audit_creation_date 2012-2-3
_audit_author_name 'David Dubbeldam'

_cell_length_a    39.36    
_cell_length_b    38.34    
_cell_length_c    25.2    
_cell_angle_alpha 90
_cell_angle_beta  90
_cell_angle_gamma 90
_cell_volume      38028.37      

_symmetry_cell_setting          triclinic
_symmetry_space_group_name_Hall 'P 1'
_symmetry_space_group_name_H-M  'P 1'
_symmetry_Int_Tables_number     1

_symmetry_equiv_pos_as_xyz 'x,y,z'

loop_
_atom_site_label
_atom_site_type_symbol
_atom_site_fract_x
_atom_site_fract_y
_atom_site_fract_z
_atom_site_charge
C_FG        C        0.0        0.018519        0.07020630952380952        0.2        
C2        C        0.03125        0.074075        0.07020630952380952        0        
C3        C        0.0        0.092592        0.07020630952380952        0        
C4        C        0.03125        0.037037        0.07020630952380952        0        
C_FG        C        0.0        0.12963        0.07020630952380952        0.2        
C2        C        0.03125        0.185185        0.07020630952380952        0        
C3        C        0.0        0.203703        0.07020630952380952        0        
C4        C        0.03125        0.148148        0.07020630952380952        0        
C_FG        C        0.0        0.24074099999999998        0.07020630952380952        0.2        
C2        C        0.03125        0.296297        0.07020630952380952        0        
C3        C        0.0        0.314815        0.07020630952380952        0        
C4        C        0.03125        0.259259        0.07020630952380952        0        
C_FG        C        0.0        0.351852        0.07020630952380952        0.2        
C2        C        0.03125        0.407408        0.07020630952380952        0        
C3        C        0.0        0.42592500000000005        0.07020630952380952        0        
C4        C        0.03125        0.37037        0.07020630952380952        0        
C_FG        C        0.0        0.46296300000000007        0.07020630952380952        0.2        
C2        C        0.03125        0.518519        0.07020630952380952        0        
C3        C        0.0        0.537037        0.07020630952380952        0        
C4        C        0.03125        0.481481        0.07020630952380952        0        
C_FG        C        0.0        0.574075        0.07020630952380952        0.2        
C2        C        0.03125        0.62963        0.07020630952380952        0        
C3        C        0.0        0.648148        0.07020630952380952        0        
C4        C        0.03125        0.592592        0.07020630952380952        0        
C1        C        0.0625        0.018519        0.07020630952380952        0        
C2        C        0.09375        0.074075        0.07020630952380952        0        
C3        C        0.0625        0.092592        0.07020630952380952        0        
C4        C        0.09375        0.037037        0.07020630952380952        0        
C1        C        0.0625        0.12963        0.07020630952380952        0        
C2        C        0.09375        0.185185        0.07020630952380952        0        
C3        C        0.0625        0.203703        0.07020630952380952        0        
C4        C        0.09375        0.148148        0.07020630952380952        0        
C1        C        0.0625        0.24074099999999998        0.07020630952380952        0        
C2        C        0.09375        0.296297        0.07020630952380952        0        
C3        C        0.0625        0.314815        0.07020630952380952        0        
C4        C        0.09375        0.259259        0.07020630952380952        0        
C1        C        0.0625        0.351852        0.07020630952380952        0        
C2        C        0.09375        0.407408        0.07020630952380952        0        
C3        C        0.0625        0.42592500000000005        0.07020630952380952        0        
C4        C        0.09375        0.37037        0.07020630952380952        0        
C1        C        0.0625        0.46296300000000007        0.07020630952380952        0        
C2        C        0.09375        0.518519        0.07020630952380952        0        
C3        C        0.0625        0.537037        0.07020630952380952        0        
C4        C        0.09375        0.481481        0.07020630952380952        0        
C1        C        0.0625        0.574075        0.07020630952380952        0        
C2        C        0.09375        0.62963        0.07020630952380952        0        
C3        C        0.0625        0.648148        0.07020630952380952        0        
C4        C        0.09375        0.592592        0.07020630952380952        0        
C1        C        0.125        0.018519        0.07020630952380952        0        
C2        C        0.15625        0.074075        0.07020630952380952        0        
C3        C        0.125        0.092592        0.07020630952380952        0        
C4        C        0.15625        0.037037        0.07020630952380952        0        
C1        C        0.125        0.12963        0.07020630952380952        0        
C2        C        0.15625        0.185185        0.07020630952380952        0        
C3        C        0.125        0.203703        0.07020630952380952        0        
C4        C        0.15625        0.148148        0.07020630952380952        0        
C1        C        0.125        0.24074099999999998        0.07020630952380952        0        
C2        C        0.15625        0.296297        0.07020630952380952        0        
C3        C        0.125        0.314815        0.07020630952380952        0        
C4        C        0.15625        0.259259        0.07020630952380952        0        
C1        C        0.125        0.351852        0.07020630952380952        0        
C2        C        0.15625        0.407408        0.07020630952380952        0        
C3        C        0.125        0.42592500000000005        0.07020630952380952        0        
C4        C        0.15625        0.37037        0.07020630952380952        0        
C1        C        0.125        0.46296300000000007        0.07020630952380952        0        
C2        C        0.15625        0.518519        0.07020630952380952        0        
C3        C        0.125        0.537037        0.07020630952380952        0        
C4        C        0.15625        0.481481        0.07020630952380952        0        
C1        C        0.125        0.574075        0.07020630952380952        0        
C2        C        0.15625        0.62963        0.07020630952380952        0        
C3        C        0.125        0.648148        0.07020630952380952        0        
C4        C        0.15625        0.592592        0.07020630952380952        0        
C1        C        0.1875        0.018519        0.07020630952380952        0        
C2        C        0.21875        0.074075        0.07020630952380952        0        
C3        C        0.1875        0.092592        0.07020630952380952        0        
C4        C        0.21875        0.037037        0.07020630952380952        0        
C1        C        0.1875        0.12963        0.07020630952380952        0        
C2        C        0.21875        0.185185        0.07020630952380952        0        
C3        C        0.1875        0.203703        0.07020630952380952        0        
C4        C        0.21875        0.148148        0.07020630952380952        0        
C1        C        0.1875        0.24074099999999998        0.07020630952380952        0        
C2        C        0.21875        0.296297        0.07020630952380952        0        
C3        C        0.1875        0.314815        0.07020630952380952        0        
C4        C        0.21875        0.259259        0.07020630952380952        0        
C1        C        0.1875        0.351852        0.07020630952380952        0        
C2        C        0.21875        0.407408        0.07020630952380952        0        
C3        C        0.1875        0.42592500000000005        0.07020630952380952        0        
C4        C        0.21875        0.37037        0.07020630952380952        0        
C1        C        0.1875        0.46296300000000007        0.07020630952380952        0        
C2        C        0.21875        0.518519        0.07020630952380952        0        
C3        C        0.1875        0.537037        0.07020630952380952        0        
C4        C        0.21875        0.481481        0.07020630952380952        0        
C1        C        0.1875        0.574075        0.07020630952380952        0        
C2        C        0.21875        0.62963        0.07020630952380952        0        
C3        C        0.1875        0.648148        0.07020630952380952        0        
C4        C        0.21875        0.592592        0.07020630952380952        0        
C_FG        C        0.25        0.018519        0.07020630952380952        0.2        
C2        C        0.28125        0.074075        0.07020630952380952        0        
C3        C        0.25        0.092592        0.07020630952380952        0        
C4        C        0.28125        0.037037        0.07020630952380952        0        
C_FG        C        0.25        0.12963        0.07020630952380952        0.2        
C2        C        0.28125        0.185185        0.07020630952380952        0        
C3        C        0.25        0.203703        0.07020630952380952        0        
C4        C        0.28125        0.148148        0.07020630952380952        0        
C_FG        C        0.25        0.24074099999999998        0.07020630952380952        0.2        
C2        C        0.28125        0.296297        0.07020630952380952        0        
C3        C        0.25        0.314815        0.07020630952380952        0        
C4        C        0.28125        0.259259        0.07020630952380952        0        
C_FG        C        0.25        0.351852        0.07020630952380952        0.2        
C2        C        0.28125        0.407408        0.07020630952380952        0        
C3        C        0.25        0.42592500000000005        0.07020630952380952        0        
C4        C        0.28125        0.37037        0.07020630952380952        0        
C_FG        C        0.25        0.46296300000000007        0.07020630952380952        0.2        
C2        C        0.28125        0.518519        0.07020630952380952        0        
C3        C        0.25        0.537037        0.07020630952380952        0        
C4        C        0.28125        0.481481        0.07020630952380952        0        
C_FG        C        0.25        0.574075        0.07020630952380952        0.2        
C2        C        0.28125        0.62963        0.07020630952380952        0        
C3        C        0.25        0.648148        0.07020630952380952        0        
C4        C        0.28125        0.592592        0.07020630952380952        0        
C1        C        0.3125        0.018519        0.07020630952380952        0        
C2        C        0.34375        0.074075        0.07020630952380952        0        
C3        C        0.3125        0.092592        0.07020630952380952        0        
C4        C        0.34375        0.037037        0.07020630952380952        0        
C1        C        0.3125        0.12963        0.07020630952380952        0        
C2        C        0.34375        0.185185        0.07020630952380952        0        
C3        C        0.3125        0.203703        0.07020630952380952        0        
C4        C        0.34375        0.148148        0.07020630952380952        0        
C1        C        0.3125        0.24074099999999998        0.07020630952380952        0        
C2        C        0.34375        0.296297        0.07020630952380952        0        
C3        C        0.3125        0.314815        0.07020630952380952        0        
C4        C        0.34375        0.259259        0.07020630952380952        0        
C1        C        0.3125        0.351852        0.07020630952380952        0        
C2        C        0.34375        0.407408        0.07020630952380952        0        
C3        C        0.3125        0.42592500000000005        0.07020630952380952        0        
C4        C        0.34375        0.37037        0.07020630952380952        0        
C1        C        0.3125        0.46296300000000007        0.07020630952380952        0        
C2        C        0.34375        0.518519        0.07020630952380952        0        
C3        C        0.3125        0.537037        0.07020630952380952        0        
C4        C        0.34375        0.481481        0.07020630952380952        0        
C1        C        0.3125        0.574075        0.07020630952380952        0        
C2        C        0.34375        0.62963        0.07020630952380952        0        
C3        C        0.3125        0.648148        0.07020630952380952        0        
C4        C        0.34375        0.592592        0.07020630952380952        0        
C1        C        0.375        0.018519        0.07020630952380952        0        
C2        C        0.40625        0.074075        0.07020630952380952        0        
C3        C        0.375        0.092592        0.07020630952380952        0        
C4        C        0.40625        0.037037        0.07020630952380952        0        
C1        C        0.375        0.12963        0.07020630952380952        0        
C2        C        0.40625        0.185185        0.07020630952380952        0        
C3        C        0.375        0.203703        0.07020630952380952        0        
C4        C        0.40625        0.148148        0.07020630952380952        0        
C1        C        0.375        0.24074099999999998        0.07020630952380952        0        
C2        C        0.40625        0.296297        0.07020630952380952        0        
C3        C        0.375        0.314815        0.07020630952380952        0        
C4        C        0.40625        0.259259        0.07020630952380952        0        
C1        C        0.375        0.351852        0.07020630952380952        0        
C2        C        0.40625        0.407408        0.07020630952380952        0        
C3        C        0.375        0.42592500000000005        0.07020630952380952        0        
C4        C        0.40625        0.37037        0.07020630952380952        0        
C1        C        0.375        0.46296300000000007        0.07020630952380952        0        
C2        C        0.40625        0.518519        0.07020630952380952        0        
C3        C        0.375        0.537037        0.07020630952380952        0        
C4        C        0.40625        0.481481        0.07020630952380952        0        
C1        C        0.375        0.574075        0.07020630952380952        0        
C2        C        0.40625        0.62963        0.07020630952380952        0        
C3        C        0.375        0.648148        0.07020630952380952        0        
C4        C        0.40625        0.592592        0.07020630952380952        0        
C1        C        0.4375        0.018519        0.07020630952380952        0        
C2        C        0.46875        0.074075        0.07020630952380952        0        
C3        C        0.4375        0.092592        0.07020630952380952        0        
C4        C        0.46875        0.037037        0.07020630952380952        0        
C1        C        0.4375        0.12963        0.07020630952380952        0        
C2        C        0.46875        0.185185        0.07020630952380952        0        
C3        C        0.4375        0.203703        0.07020630952380952        0        
C4        C        0.46875        0.148148        0.07020630952380952        0        
C1        C        0.4375        0.24074099999999998        0.07020630952380952        0        
C2        C        0.46875        0.296297        0.07020630952380952        0        
C3        C        0.4375        0.314815        0.07020630952380952        0        
C4        C        0.46875        0.259259        0.07020630952380952        0        
C1        C        0.4375        0.351852        0.07020630952380952        0        
C2        C        0.46875        0.407408        0.07020630952380952        0        
C3        C        0.4375        0.42592500000000005        0.07020630952380952        0        
C4        C        0.46875        0.37037        0.07020630952380952        0        
C1        C        0.4375        0.46296300000000007        0.07020630952380952        0        
C2        C        0.46875        0.518519        0.07020630952380952        0        
C3        C        0.4375        0.537037        0.07020630952380952        0        
C4        C        0.46875        0.481481        0.07020630952380952        0        
C1        C        0.4375        0.574075        0.07020630952380952        0        
C2        C        0.46875        0.62963        0.07020630952380952        0        
C3        C        0.4375        0.648148        0.07020630952380952        0        
C4        C        0.46875        0.592592        0.07020630952380952        0        
C1        C        0.5        0.018519        0.07020630952380952        0        
C2        C        0.53125        0.074075        0.07020630952380952        0        
C3        C        0.5        0.092592        0.07020630952380952        0        
C4        C        0.53125        0.037037        0.07020630952380952        0        
C1        C        0.5        0.12963        0.07020630952380952        0        
C2        C        0.53125        0.185185        0.07020630952380952        0        
C3        C        0.5        0.203703        0.07020630952380952        0        
C4        C        0.53125        0.148148        0.07020630952380952        0        
C1        C        0.5        0.24074099999999998        0.07020630952380952        0        
C2        C        0.53125        0.296297        0.07020630952380952        0        
C3        C        0.5        0.314815        0.07020630952380952        0        
C4        C        0.53125        0.259259        0.07020630952380952        0        
C1        C        0.5        0.351852        0.07020630952380952        0        
C2        C        0.53125        0.407408        0.07020630952380952        0        
C3        C        0.5        0.42592500000000005        0.07020630952380952        0        
C4        C        0.53125        0.37037        0.07020630952380952        0        
C1        C        0.5        0.46296300000000007        0.07020630952380952        0        
C2        C        0.53125        0.518519        0.07020630952380952        0        
C3        C        0.5        0.537037        0.07020630952380952        0        
C4        C        0.53125        0.481481        0.07020630952380952        0        
C1        C        0.5        0.574075        0.07020630952380952        0        
C2        C        0.53125        0.62963        0.07020630952380952        0        
C3        C        0.5        0.648148        0.07020630952380952        0        
C4        C        0.53125        0.592592        0.07020630952380952        0        
C1        C        0.5625        0.018519        0.07020630952380952        0        
C2        C        0.59375        0.074075        0.07020630952380952        0        
C3        C        0.5625        0.092592        0.07020630952380952        0        
C4        C        0.59375        0.037037        0.07020630952380952        0        
C1        C        0.5625        0.12963        0.07020630952380952        0        
C2        C        0.59375        0.185185        0.07020630952380952        0        
C3        C        0.5625        0.203703        0.07020630952380952        0        
C4        C        0.59375        0.148148        0.07020630952380952        0        
C1        C        0.5625        0.24074099999999998        0.07020630952380952        0        
C2        C        0.59375        0.296297        0.07020630952380952        0        
C3        C        0.5625        0.314815        0.07020630952380952        0        
C4        C        0.59375        0.259259        0.07020630952380952        0        
C1        C        0.5625        0.351852        0.07020630952380952        0        
C2        C        0.59375        0.407408        0.07020630952380952        0        
C3        C        0.5625        0.42592500000000005        0.07020630952380952        0        
C4        C        0.59375        0.37037        0.07020630952380952        0        
C1        C        0.5625        0.46296300000000007        0.07020630952380952        0        
C2        C        0.59375        0.518519        0.07020630952380952        0        
C3        C        0.5625        0.537037        0.07020630952380952        0        
C4        C        0.59375        0.481481        0.07020630952380952        0        
C1        C        0.5625        0.574075        0.07020630952380952        0        
C2        C        0.59375        0.62963        0.07020630952380952        0        
C3        C        0.5625        0.648148        0.07020630952380952        0        
C4        C        0.59375        0.592592        0.07020630952380952        0        
C1        C        0.625        0.018519        0.07020630952380952        0        
C2        C        0.65625        0.074075        0.07020630952380952        0        
C3        C        0.625        0.092592        0.07020630952380952        0        
C4        C        0.65625        0.037037        0.07020630952380952        0        
C1        C        0.625        0.12963        0.07020630952380952        0        
C2        C        0.65625        0.185185        0.07020630952380952        0        
C3        C        0.625        0.203703        0.07020630952380952        0        
C4        C        0.65625        0.148148        0.07020630952380952        0        
C1        C        0.625        0.24074099999999998        0.07020630952380952        0        
C2        C        0.65625        0.296297        0.07020630952380952        0        
C3        C        0.625        0.314815        0.07020630952380952        0        
C4        C        0.65625        0.259259        0.07020630952380952        0        
C1        C        0.625        0.351852        0.07020630952380952        0        
C2        C        0.65625        0.407408        0.07020630952380952        0        
C3        C        0.625        0.42592500000000005        0.07020630952380952        0        
C4        C        0.65625        0.37037        0.07020630952380952        0        
C1        C        0.625        0.46296300000000007        0.07020630952380952        0        
C2        C        0.65625        0.518519        0.07020630952380952        0        
C3        C        0.625        0.537037        0.07020630952380952        0        
C4        C        0.65625        0.481481        0.07020630952380952        0        
C1        C        0.625        0.574075        0.07020630952380952        0        
C2        C        0.65625        0.62963        0.07020630952380952        0        
C3        C        0.625        0.648148        0.07020630952380952        0        
C4        C        0.65625        0.592592        0.07020630952380952        0        
C1        C        0.6875        0.018519        0.07020630952380952        0        
C2        C        0.71875        0.074075        0.07020630952380952        0        
C3        C        0.6875        0.092592        0.07020630952380952        0        
C4        C        0.71875        0.037037        0.07020630952380952        0        
C1        C        0.6875        0.12963        0.07020630952380952        0        
C2        C        0.71875        0.185185        0.07020630952380952        0        
C3        C        0.6875        0.203703        0.07020630952380952        0        
C4        C        0.71875        0.148148        0.07020630952380952        0        
C1        C        0.6875        0.24074099999999998        0.07020630952380952        0        
C2        C        0.71875        0.296297        0.07020630952380952        0        
C3        C        0.6875        0.314815        0.07020630952380952        0        
C4        C        0.71875        0.259259        0.07020630952380952        0        
C1        C        0.6875        0.351852        0.07020630952380952        0        
C2        C        0.71875        0.407408        0.07020630952380952        0        
C3        C        0.6875        0.42592500000000005        0.07020630952380952        0        
C4        C        0.71875        0.37037        0.07020630952380952        0        
C1        C        0.6875        0.46296300000000007        0.07020630952380952        0        
C2        C        0.71875        0.518519        0.07020630952380952        0        
C3        C        0.6875        0.537037        0.07020630952380952        0        
C4        C        0.71875        0.481481        0.07020630952380952        0        
C1        C        0.6875        0.574075        0.07020630952380952        0        
C2        C        0.71875        0.62963        0.07020630952380952        0        
C3        C        0.6875        0.648148        0.07020630952380952        0        
C4        C        0.71875        0.592592        0.07020630952380952        0        
C_FG        C        0.75        0.018519        0.07020630952380952        0.2        
C2        C        0.78125        0.074075        0.07020630952380952        0        
C3        C        0.75        0.092592        0.07020630952380952        0        
C4        C        0.78125        0.037037        0.07020630952380952        0        
C_FG        C        0.75        0.12963        0.07020630952380952        0.2        
C2        C        0.78125        0.185185        0.07020630952380952        0        
C3        C        0.75        0.203703        0.07020630952380952        0        
C4        C        0.78125        0.148148        0.07020630952380952        0        
C_FG        C        0.75        0.24074099999999998        0.07020630952380952        0.2        
C2        C        0.78125        0.296297        0.07020630952380952        0        
C3        C        0.75        0.314815        0.07020630952380952        0        
C4        C        0.78125        0.259259        0.07020630952380952        0        
C_FG        C        0.75        0.351852        0.07020630952380952        0.2        
C2        C        0.78125        0.407408        0.07020630952380952        0        
C3        C        0.75        0.42592500000000005        0.07020630952380952        0        
C4        C        0.78125        0.37037        0.07020630952380952        0        
C_FG        C        0.75        0.46296300000000007        0.07020630952380952        0.2        
C2        C        0.78125        0.518519        0.07020630952380952        0        
C3        C        0.75        0.537037        0.07020630952380952        0        
C4        C        0.78125        0.481481        0.07020630952380952        0        
C_FG        C        0.75        0.574075        0.07020630952380952        0.2        
C2        C        0.78125        0.62963        0.07020630952380952        0        
C3        C        0.75        0.648148        0.07020630952380952        0        
C4        C        0.78125        0.592592        0.07020630952380952        0        
C1        C        0.8125        0.018519        0.07020630952380952        0        
C2        C        0.84375        0.074075        0.07020630952380952        0        
C3        C        0.8125        0.092592        0.07020630952380952        0        
C4        C        0.84375        0.037037        0.07020630952380952        0        
C1        C        0.8125        0.12963        0.07020630952380952        0        
C2        C        0.84375        0.185185        0.07020630952380952        0        
C3        C        0.8125        0.203703        0.07020630952380952        0        
C4        C        0.84375        0.148148        0.07020630952380952        0        
C1        C        0.8125        0.24074099999999998        0.07020630952380952        0        
C2        C        0.84375        0.296297        0.07020630952380952        0        
C3        C        0.8125        0.314815        0.07020630952380952        0        
C4        C        0.84375        0.259259        0.07020630952380952        0        
C1        C        0.8125        0.351852        0.07020630952380952        0        
C2        C        0.84375        0.407408        0.07020630952380952        0        
C3        C        0.8125        0.42592500000000005        0.07020630952380952        0        
C4        C        0.84375        0.37037        0.07020630952380952        0        
C1        C        0.8125        0.46296300000000007        0.07020630952380952        0        
C2        C        0.84375        0.518519        0.07020630952380952        0        
C3        C        0.8125        0.537037        0.07020630952380952        0        
C4        C        0.84375        0.481481        0.07020630952380952        0        
C1        C        0.8125        0.574075        0.07020630952380952        0        
C2        C        0.84375        0.62963        0.07020630952380952        0        
C3        C        0.8125        0.648148        0.07020630952380952        0        
C4        C        0.84375        0.592592        0.07020630952380952        0        
C1        C        0.875        0.018519        0.07020630952380952        0        
C2        C        0.9062500000000001        0.074075        0.07020630952380952        0        
C3        C        0.875        0.092592        0.07020630952380952        0        
C4        C        0.9062500000000001        0.037037        0.07020630952380952        0        
C1        C        0.875        0.12963        0.07020630952380952        0        
C2        C        0.9062500000000001        0.185185        0.07020630952380952        0        
C3        C        0.875        0.203703        0.07020630952380952        0        
C4        C        0.9062500000000001        0.148148        0.07020630952380952        0        
C1        C        0.875        0.24074099999999998        0.07020630952380952        0        
C2        C        0.9062500000000001        0.296297        0.07020630952380952        0        
C3        C        0.875        0.314815        0.07020630952380952        0        
C4        C        0.9062500000000001        0.259259        0.07020630952380952        0        
C1        C        0.875        0.351852        0.07020630952380952        0        
C2        C        0.9062500000000001        0.407408        0.07020630952380952        0        
C3        C        0.875        0.42592500000000005        0.07020630952380952        0        
C4        C        0.9062500000000001        0.37037        0.07020630952380952        0        
C1        C        0.875        0.46296300000000007        0.07020630952380952        0        
C2        C        0.9062500000000001        0.518519        0.07020630952380952        0        
C3        C        0.875        0.537037        0.07020630952380952        0        
C4        C        0.9062500000000001        0.481481        0.07020630952380952        0        
C1        C        0.875        0.574075        0.07020630952380952        0        
C2        C        0.9062500000000001        0.62963        0.07020630952380952        0        
C3        C        0.875        0.648148        0.07020630952380952        0        
C4        C        0.9062500000000001        0.592592        0.07020630952380952        0        
C1        C        0.9375        0.018519        0.07020630952380952        0        
C2        C        0.9687500000000001        0.074075        0.07020630952380952        0        
C3        C        0.9375        0.092592        0.07020630952380952        0        
C4        C        0.9687500000000001        0.037037        0.07020630952380952        0        
C1        C        0.9375        0.12963        0.07020630952380952        0        
C2        C        0.9687500000000001        0.185185        0.07020630952380952        0        
C3        C        0.9375        0.203703        0.07020630952380952        0        
C4        C        0.9687500000000001        0.148148        0.07020630952380952        0        
C1        C        0.9375        0.24074099999999998        0.07020630952380952        0        
C2        C        0.9687500000000001        0.296297        0.07020630952380952        0        
C3        C        0.9375        0.314815        0.07020630952380952        0        
C4        C        0.9687500000000001        0.259259        0.07020630952380952        0        
C1        C        0.9375        0.351852        0.07020630952380952        0        
C2        C        0.9687500000000001        0.407408        0.07020630952380952        0        
C3        C        0.9375        0.42592500000000005        0.07020630952380952        0        
C4        C        0.9687500000000001        0.37037        0.07020630952380952        0        
C1        C        0.9375        0.46296300000000007        0.07020630952380952        0        
C2        C        0.9687500000000001        0.518519        0.07020630952380952        0        
C3        C        0.9375        0.537037        0.07020630952380952        0        
C4        C        0.9687500000000001        0.481481        0.07020630952380952        0        
C1        C        0.9375        0.574075        0.07020630952380952        0        
C2        C        0.9687500000000001        0.62963        0.07020630952380952        0        
C3        C        0.9375        0.648148        0.07020630952380952        0        
C4        C        0.9687500000000001        0.592592        0.07020630952380952        0        
C_FG        C        0.0        0.685186        0.07020630952380952        0.2        
C1        C        0.0625        0.685186        0.07020630952380952        0        
C1        C        0.125        0.685186        0.07020630952380952        0        
C1        C        0.1875        0.685186        0.07020630952380952        0        
C_FG        C        0.25        0.685186        0.07020630952380952        0.2        
C1        C        0.3125        0.685186        0.07020630952380952        0        
C1        C        0.375        0.685186        0.07020630952380952        0        
C1        C        0.4375        0.685186        0.07020630952380952        0        
C1        C        0.5        0.685186        0.07020630952380952        0        
C1        C        0.5625        0.685186        0.07020630952380952        0        
C1        C        0.625        0.685186        0.07020630952380952        0        
C1        C        0.6875        0.685186        0.07020630952380952        0        
C_FG        C        0.75        0.685186        0.07020630952380952        0.2        
C1        C        0.8125        0.685186        0.07020630952380952        0        
C1        C        0.875        0.685186        0.07020630952380952        0        
C1        C        0.9375        0.685186        0.07020630952380952        0        
C2        C        0.03125        0.740741        0.07020630952380952        0        
C2        C        0.09375        0.740741        0.07020630952380952        0        
C2        C        0.15625        0.740741        0.07020630952380952        0        
C2        C        0.21875        0.740741        0.07020630952380952        0        
C2        C        0.28125        0.740741        0.07020630952380952        0        
C2        C        0.34375        0.740741        0.07020630952380952        0        
C2        C        0.40625        0.740741        0.07020630952380952        0        
C2        C        0.46875        0.740741        0.07020630952380952        0        
C2        C        0.53125        0.740741        0.07020630952380952        0        
C2        C        0.59375        0.740741        0.07020630952380952        0        
C2        C        0.65625        0.740741        0.07020630952380952        0        
C2        C        0.71875        0.740741        0.07020630952380952        0        
C2        C        0.78125        0.740741        0.07020630952380952        0        
C2        C        0.84375        0.740741        0.07020630952380952        0        
C2        C        0.9062500000000001        0.740741        0.07020630952380952        0        
C2        C        0.9687500000000001        0.740741        0.07020630952380952        0        
C3        C        0.0        0.759259        0.07020630952380952        0        
C3        C        0.0625        0.759259        0.07020630952380952        0        
C3        C        0.125        0.759259        0.07020630952380952        0        
C3        C        0.1875        0.759259        0.07020630952380952        0        
C3        C        0.25        0.759259        0.07020630952380952        0        
C3        C        0.3125        0.759259        0.07020630952380952        0        
C3        C        0.375        0.759259        0.07020630952380952        0        
C3        C        0.4375        0.759259        0.07020630952380952        0        
C3        C        0.5        0.759259        0.07020630952380952        0        
C3        C        0.5625        0.759259        0.07020630952380952        0        
C3        C        0.625        0.759259        0.07020630952380952        0        
C3        C        0.6875        0.759259        0.07020630952380952        0        
C3        C        0.75        0.759259        0.07020630952380952        0        
C3        C        0.8125        0.759259        0.07020630952380952        0        
C3        C        0.875        0.759259        0.07020630952380952        0        
C3        C        0.9375        0.759259        0.07020630952380952        0        
C4        C        0.03125        0.703703        0.07020630952380952        0        
C4        C        0.09375        0.703703        0.07020630952380952        0        
C4        C        0.15625        0.703703        0.07020630952380952        0        
C4        C        0.21875        0.703703        0.07020630952380952        0        
C4        C        0.28125        0.703703        0.07020630952380952        0        
C4        C        0.34375        0.703703        0.07020630952380952        0        
C4        C        0.40625        0.703703        0.07020630952380952        0        
C4        C        0.46875        0.703703        0.07020630952380952        0        
C4        C        0.53125        0.703703        0.07020630952380952        0        
C4        C        0.59375        0.703703        0.07020630952380952        0        
C4        C        0.65625        0.703703        0.07020630952380952        0        
C4        C        0.71875        0.703703        0.07020630952380952        0        
C4        C        0.78125        0.703703        0.07020630952380952        0        
C4        C        0.84375        0.703703        0.07020630952380952        0        
C4        C        0.9062500000000001        0.703703        0.07020630952380952        0        
C4        C        0.9687500000000001        0.703703        0.07020630952380952        0        
C_FG        C        0.0        0.796297        0.07020630952380952        0.2        
C1        C        0.0625        0.796297        0.07020630952380952        0        
C1        C        0.125        0.796297        0.07020630952380952        0        
C1        C        0.1875        0.796297        0.07020630952380952        0        
C_FG        C        0.25        0.796297        0.07020630952380952        0.2        
C1        C        0.3125        0.796297        0.07020630952380952        0        
C1        C        0.375        0.796297        0.07020630952380952        0        
C1        C        0.4375        0.796297        0.07020630952380952        0        
C1        C        0.5        0.796297        0.07020630952380952        0        
C1        C        0.5625        0.796297        0.07020630952380952        0        
C1        C        0.625        0.796297        0.07020630952380952        0        
C1        C        0.6875        0.796297        0.07020630952380952        0        
C_FG        C        0.75        0.796297        0.07020630952380952        0.2        
C1        C        0.8125        0.796297        0.07020630952380952        0        
C1        C        0.875        0.796297        0.07020630952380952        0        
C1        C        0.9375        0.796297        0.07020630952380952        0        
C2        C        0.03125        0.851852        0.07020630952380952        0        
C2        C        0.09375        0.851852        0.07020630952380952        0        
C2        C        0.15625        0.851852        0.07020630952380952        0        
C2        C        0.21875        0.851852        0.07020630952380952        0        
C2        C        0.28125        0.851852        0.07020630952380952        0        
C2        C        0.34375        0.851852        0.07020630952380952        0        
C2        C        0.40625        0.851852        0.07020630952380952        0        
C2        C        0.46875        0.851852        0.07020630952380952        0        
C2        C        0.53125        0.851852        0.07020630952380952        0        
C2        C        0.59375        0.851852        0.07020630952380952        0        
C2        C        0.65625        0.851852        0.07020630952380952        0        
C2        C        0.71875        0.851852        0.07020630952380952        0        
C2        C        0.78125        0.851852        0.07020630952380952        0        
C2        C        0.84375        0.851852        0.07020630952380952        0        
C2        C        0.9062500000000001        0.851852        0.07020630952380952        0        
C2        C        0.9687500000000001        0.851852        0.07020630952380952        0        
C3        C        0.0        0.87037        0.07020630952380952        0        
C3        C        0.0625        0.87037        0.07020630952380952        0        
C3        C        0.125        0.87037        0.07020630952380952        0        
C3        C        0.1875        0.87037        0.07020630952380952        0        
C3        C        0.25        0.87037        0.07020630952380952        0        
C3        C        0.3125        0.87037        0.07020630952380952        0        
C3        C        0.375        0.87037        0.07020630952380952        0        
C3        C        0.4375        0.87037        0.07020630952380952        0        
C3        C        0.5        0.87037        0.07020630952380952        0        
C3        C        0.5625        0.87037        0.07020630952380952        0        
C3        C        0.625        0.87037        0.07020630952380952        0        
C3        C        0.6875        0.87037        0.07020630952380952        0        
C3        C        0.75        0.87037        0.07020630952380952        0        
C3        C        0.8125        0.87037        0.07020630952380952        0        
C3        C        0.875        0.87037        0.07020630952380952        0        
C3        C        0.9375        0.87037        0.07020630952380952        0        
C4        C        0.03125        0.814814        0.07020630952380952        0        
C4        C        0.09375        0.814814        0.07020630952380952        0        
C4        C        0.15625        0.814814        0.07020630952380952        0        
C4        C        0.21875        0.814814        0.07020630952380952        0        
C4        C        0.28125        0.814814        0.07020630952380952        0        
C4        C        0.34375        0.814814        0.07020630952380952        0        
C4        C        0.40625        0.814814        0.07020630952380952        0        
C4        C        0.46875        0.814814        0.07020630952380952        0        
C4        C        0.53125        0.814814        0.07020630952380952        0        
C4        C        0.59375        0.814814        0.07020630952380952        0        
C4        C        0.65625        0.814814        0.07020630952380952        0        
C4        C        0.71875        0.814814        0.07020630952380952        0        
C4        C        0.78125        0.814814        0.07020630952380952        0        
C4        C        0.84375        0.814814        0.07020630952380952        0        
C4        C        0.9062500000000001        0.814814        0.07020630952380952        0        
C4        C        0.9687500000000001        0.814814        0.07020630952380952        0        
C_FG        C        0.0        0.907408        0.07020630952380952        0.2        
C1        C        0.0625        0.907408        0.07020630952380952        0        
C1        C        0.125        0.907408        0.07020630952380952        0        
C1        C        0.1875        0.907408        0.07020630952380952        0        
C_FG        C        0.25        0.907408        0.07020630952380952        0.2        
C1        C        0.3125        0.907408        0.07020630952380952        0        
C1        C        0.375        0.907408        0.07020630952380952        0        
C1        C        0.4375        0.907408        0.07020630952380952        0        
C1        C        0.5        0.907408        0.07020630952380952        0        
C1        C        0.5625        0.907408        0.07020630952380952        0        
C1        C        0.625        0.907408        0.07020630952380952        0        
C1        C        0.6875        0.907408        0.07020630952380952        0        
C_FG        C        0.75        0.907408        0.07020630952380952        0.2        
C1        C        0.8125        0.907408        0.07020630952380952        0        
C1        C        0.875        0.907408        0.07020630952380952        0        
C1        C        0.9375        0.907408        0.07020630952380952        0        
C2        C        0.03125        0.962963        0.07020630952380952        0        
C2        C        0.09375        0.962963        0.07020630952380952        0        
C2        C        0.15625        0.962963        0.07020630952380952        0        
C2        C        0.21875        0.962963        0.07020630952380952        0        
C2        C        0.28125        0.962963        0.07020630952380952        0        
C2        C        0.34375        0.962963        0.07020630952380952        0        
C2        C        0.40625        0.962963        0.07020630952380952        0        
C2        C        0.46875        0.962963        0.07020630952380952        0        
C2        C        0.53125        0.962963        0.07020630952380952        0        
C2        C        0.59375        0.962963        0.07020630952380952        0        
C2        C        0.65625        0.962963        0.07020630952380952        0        
C2        C        0.71875        0.962963        0.07020630952380952        0        
C2        C        0.78125        0.962963        0.07020630952380952        0        
C2        C        0.84375        0.962963        0.07020630952380952        0        
C2        C        0.9062500000000001        0.962963        0.07020630952380952        0        
C2        C        0.9687500000000001        0.962963        0.07020630952380952        0        
C3        C        0.0        0.9814809999999999        0.07020630952380952        0        
C3        C        0.0625        0.9814809999999999        0.07020630952380952        0        
C3        C        0.125        0.9814809999999999        0.07020630952380952        0        
C3        C        0.1875        0.9814809999999999        0.07020630952380952        0        
C3        C        0.25        0.9814809999999999        0.07020630952380952        0        
C3        C        0.3125        0.9814809999999999        0.07020630952380952        0        
C3        C        0.375        0.9814809999999999        0.07020630952380952        0        
C3        C        0.4375        0.9814809999999999        0.07020630952380952        0        
C3        C        0.5        0.9814809999999999        0.07020630952380952        0        
C3        C        0.5625        0.9814809999999999        0.07020630952380952        0        
C3        C        0.625        0.9814809999999999        0.07020630952380952        0        
C3        C        0.6875        0.9814809999999999        0.07020630952380952        0        
C3        C        0.75        0.9814809999999999        0.07020630952380952        0        
C3        C        0.8125        0.9814809999999999        0.07020630952380952        0        
C3        C        0.875        0.9814809999999999        0.07020630952380952        0        
C3        C        0.9375        0.9814809999999999        0.07020630952380952        0        
C4        C        0.03125        0.925925        0.07020630952380952        0        
C4        C        0.09375        0.925925        0.07020630952380952        0        
C4        C        0.15625        0.925925        0.07020630952380952        0        
C4        C        0.21875        0.925925        0.07020630952380952        0        
C4        C        0.28125        0.925925        0.07020630952380952        0        
C4        C        0.34375        0.925925        0.07020630952380952        0        
C4        C        0.40625        0.925925        0.07020630952380952        0        
C4        C        0.46875        0.925925        0.07020630952380952        0        
C4        C        0.53125        0.925925        0.07020630952380952        0        
C4        C        0.59375        0.925925        0.07020630952380952        0        
C4        C        0.65625        0.925925        0.07020630952380952        0        
C4        C        0.71875        0.925925        0.07020630952380952        0        
C4        C        0.78125        0.925925        0.07020630952380952        0        
C4        C        0.84375        0.925925        0.07020630952380952        0        
C4        C        0.9062500000000001        0.925925        0.07020630952380952        0        
C4        C        0.9687500000000001        0.925925        0.07020630952380952        0        
C1        C        0.0        0.018519        0.2031433095238095        0        
C2        C        0.03125        0.074075        0.2031433095238095        0        
C3        C        0.0        0.092592        0.2031433095238095        0        
C4        C        0.03125        0.037037        0.2031433095238095        0        
C1        C        0.0        0.12963        0.2031433095238095        0        
C2        C        0.03125        0.185185        0.2031433095238095        0        
C3        C        0.0        0.203703        0.2031433095238095        0        
C4        C        0.03125        0.148148        0.2031433095238095        0        
C1        C        0.0        0.24074099999999998        0.2031433095238095        0        
C2        C        0.03125        0.296297        0.2031433095238095        0        
C3        C        0.0        0.314815        0.2031433095238095        0        
C4        C        0.03125        0.259259        0.2031433095238095        0        
C1        C        0.0        0.351852        0.2031433095238095        0        
C2        C        0.03125        0.407408        0.2031433095238095        0        
C3        C        0.0        0.42592500000000005        0.2031433095238095        0        
C4        C        0.03125        0.37037        0.2031433095238095        0        
C1        C        0.0        0.46296300000000007        0.2031433095238095        0        
C2        C        0.03125        0.518519        0.2031433095238095        0        
C3        C        0.0        0.537037        0.2031433095238095        0        
C4        C        0.03125        0.481481        0.2031433095238095        0        
C1        C        0.0        0.574075        0.2031433095238095        0        
C2        C        0.03125        0.62963        0.2031433095238095        0        
C3        C        0.0        0.648148        0.2031433095238095        0        
C4        C        0.03125        0.592592        0.2031433095238095        0        
C1        C        0.0625        0.018519        0.2031433095238095        0        
C2        C        0.09375        0.074075        0.2031433095238095        0        
C3        C        0.0625        0.092592        0.2031433095238095        0        
C4        C        0.09375        0.037037        0.2031433095238095        0        
C1        C        0.0625        0.12963        0.2031433095238095        0        
C2        C        0.09375        0.185185        0.2031433095238095        0        
C3        C        0.0625        0.203703        0.2031433095238095        0        
C4        C        0.09375        0.148148        0.2031433095238095        0        
C1        C        0.0625        0.24074099999999998        0.2031433095238095        0        
C2        C        0.09375        0.296297        0.2031433095238095        0        
C3        C        0.0625        0.314815        0.2031433095238095        0        
C4        C        0.09375        0.259259        0.2031433095238095        0        
C1        C        0.0625        0.351852        0.2031433095238095        0        
C2        C        0.09375        0.407408        0.2031433095238095        0        
C3        C        0.0625        0.42592500000000005        0.2031433095238095        0        
C4        C        0.09375        0.37037        0.2031433095238095        0        
C1        C        0.0625        0.46296300000000007        0.2031433095238095        0        
C2        C        0.09375        0.518519        0.2031433095238095        0        
C3        C        0.0625        0.537037        0.2031433095238095        0        
C4        C        0.09375        0.481481        0.2031433095238095        0        
C1        C        0.0625        0.574075        0.2031433095238095        0        
C2        C        0.09375        0.62963        0.2031433095238095        0        
C3        C        0.0625        0.648148        0.2031433095238095        0        
C4        C        0.09375        0.592592        0.2031433095238095        0        
C1        C        0.125        0.018519        0.2031433095238095        0        
C2        C        0.15625        0.074075        0.2031433095238095        0        
C3        C        0.125        0.092592        0.2031433095238095        0        
C4        C        0.15625        0.037037        0.2031433095238095        0        
C1        C        0.125        0.12963        0.2031433095238095        0        
C2        C        0.15625        0.185185        0.2031433095238095        0        
C3        C        0.125        0.203703        0.2031433095238095        0        
C4        C        0.15625        0.148148        0.2031433095238095        0        
C1        C        0.125        0.24074099999999998        0.2031433095238095        0        
C2        C        0.15625        0.296297        0.2031433095238095        0        
C3        C        0.125        0.314815        0.2031433095238095        0        
C4        C        0.15625        0.259259        0.2031433095238095        0        
C1        C        0.125        0.351852        0.2031433095238095        0        
C2        C        0.15625        0.407408        0.2031433095238095        0        
C3        C        0.125        0.42592500000000005        0.2031433095238095        0        
C4        C        0.15625        0.37037        0.2031433095238095        0        
C1        C        0.125        0.46296300000000007        0.2031433095238095        0        
C2        C        0.15625        0.518519        0.2031433095238095        0        
C3        C        0.125        0.537037        0.2031433095238095        0        
C4        C        0.15625        0.481481        0.2031433095238095        0        
C1        C        0.125        0.574075        0.2031433095238095        0        
C2        C        0.15625        0.62963        0.2031433095238095        0        
C3        C        0.125        0.648148        0.2031433095238095        0        
C4        C        0.15625        0.592592        0.2031433095238095        0        
C1        C        0.1875        0.018519        0.2031433095238095        0        
C2        C        0.21875        0.074075        0.2031433095238095        0        
C3        C        0.1875        0.092592        0.2031433095238095        0        
C4        C        0.21875        0.037037        0.2031433095238095        0        
C1        C        0.1875        0.12963        0.2031433095238095        0        
C2        C        0.21875        0.185185        0.2031433095238095        0        
C3        C        0.1875        0.203703        0.2031433095238095        0        
C4        C        0.21875        0.148148        0.2031433095238095        0        
C1        C        0.1875        0.24074099999999998        0.2031433095238095        0        
C2        C        0.21875        0.296297        0.2031433095238095        0        
C3        C        0.1875        0.314815        0.2031433095238095        0        
C4        C        0.21875        0.259259        0.2031433095238095        0        
C1        C        0.1875        0.351852        0.2031433095238095        0        
C2        C        0.21875        0.407408        0.2031433095238095        0        
C3        C        0.1875        0.42592500000000005        0.2031433095238095        0        
C4        C        0.21875        0.37037        0.2031433095238095        0        
C1        C        0.1875        0.46296300000000007        0.2031433095238095        0        
C2        C        0.21875        0.518519        0.2031433095238095        0        
C3        C        0.1875        0.537037        0.2031433095238095        0        
C4        C        0.21875        0.481481        0.2031433095238095        0        
C1        C        0.1875        0.574075        0.2031433095238095        0        
C2        C        0.21875        0.62963        0.2031433095238095        0        
C3        C        0.1875        0.648148        0.2031433095238095        0        
C4        C        0.21875        0.592592        0.2031433095238095        0        
C1        C        0.25        0.018519        0.2031433095238095        0        
C2        C        0.28125        0.074075        0.2031433095238095        0        
C3        C        0.25        0.092592        0.2031433095238095        0        
C4        C        0.28125        0.037037        0.2031433095238095        0        
C1        C        0.25        0.12963        0.2031433095238095        0        
C2        C        0.28125        0.185185        0.2031433095238095        0        
C3        C        0.25        0.203703        0.2031433095238095        0        
C4        C        0.28125        0.148148        0.2031433095238095        0        
C1        C        0.25        0.24074099999999998        0.2031433095238095        0        
C2        C        0.28125        0.296297        0.2031433095238095        0        
C3        C        0.25        0.314815        0.2031433095238095        0        
C4        C        0.28125        0.259259        0.2031433095238095        0        
C1        C        0.25        0.351852        0.2031433095238095        0        
C2        C        0.28125        0.407408        0.2031433095238095        0        
C3        C        0.25        0.42592500000000005        0.2031433095238095        0        
C4        C        0.28125        0.37037        0.2031433095238095        0        
C1        C        0.25        0.46296300000000007        0.2031433095238095        0        
C2        C        0.28125        0.518519        0.2031433095238095        0        
C3        C        0.25        0.537037        0.2031433095238095        0        
C4        C        0.28125        0.481481        0.2031433095238095        0        
C1        C        0.25        0.574075        0.2031433095238095        0        
C2        C        0.28125        0.62963        0.2031433095238095        0        
C3        C        0.25        0.648148        0.2031433095238095        0        
C4        C        0.28125        0.592592        0.2031433095238095        0        
C1        C        0.3125        0.018519        0.2031433095238095        0        
C2        C        0.34375        0.074075        0.2031433095238095        0        
C3        C        0.3125        0.092592        0.2031433095238095        0        
C4        C        0.34375        0.037037        0.2031433095238095        0        
C1        C        0.3125        0.12963        0.2031433095238095        0        
C2        C        0.34375        0.185185        0.2031433095238095        0        
C3        C        0.3125        0.203703        0.2031433095238095        0        
C4        C        0.34375        0.148148        0.2031433095238095        0        
C1        C        0.3125        0.24074099999999998        0.2031433095238095        0        
C2        C        0.34375        0.296297        0.2031433095238095        0        
C3        C        0.3125        0.314815        0.2031433095238095        0        
C4        C        0.34375        0.259259        0.2031433095238095        0        
C1        C        0.3125        0.351852        0.2031433095238095        0        
C2        C        0.34375        0.407408        0.2031433095238095        0        
C3        C        0.3125        0.42592500000000005        0.2031433095238095        0        
C4        C        0.34375        0.37037        0.2031433095238095        0        
C1        C        0.3125        0.46296300000000007        0.2031433095238095        0        
C2        C        0.34375        0.518519        0.2031433095238095        0        
C3        C        0.3125        0.537037        0.2031433095238095        0        
C4        C        0.34375        0.481481        0.2031433095238095        0        
C1        C        0.3125        0.574075        0.2031433095238095        0        
C2        C        0.34375        0.62963        0.2031433095238095        0        
C3        C        0.3125        0.648148        0.2031433095238095        0        
C4        C        0.34375        0.592592        0.2031433095238095        0        
C1        C        0.375        0.018519        0.2031433095238095        0        
C2        C        0.40625        0.074075        0.2031433095238095        0        
C3        C        0.375        0.092592        0.2031433095238095        0        
C4        C        0.40625        0.037037        0.2031433095238095        0        
C1        C        0.375        0.12963        0.2031433095238095        0        
C2        C        0.40625        0.185185        0.2031433095238095        0        
C3        C        0.375        0.203703        0.2031433095238095        0        
C4        C        0.40625        0.148148        0.2031433095238095        0        
C1        C        0.375        0.24074099999999998        0.2031433095238095        0        
C2        C        0.40625        0.296297        0.2031433095238095        0        
C3        C        0.375        0.314815        0.2031433095238095        0        
C4        C        0.40625        0.259259        0.2031433095238095        0        
C1        C        0.375        0.351852        0.2031433095238095        0        
C2        C        0.40625        0.407408        0.2031433095238095        0        
C3        C        0.375        0.42592500000000005        0.2031433095238095        0        
C4        C        0.40625        0.37037        0.2031433095238095        0        
C1        C        0.375        0.46296300000000007        0.2031433095238095        0        
C2        C        0.40625        0.518519        0.2031433095238095        0        
C3        C        0.375        0.537037        0.2031433095238095        0        
C4        C        0.40625        0.481481        0.2031433095238095        0        
C1        C        0.375        0.574075        0.2031433095238095        0        
C2        C        0.40625        0.62963        0.2031433095238095        0        
C3        C        0.375        0.648148        0.2031433095238095        0        
C4        C        0.40625        0.592592        0.2031433095238095        0        
C1        C        0.4375        0.018519        0.2031433095238095        0        
C2        C        0.46875        0.074075        0.2031433095238095        0        
C3        C        0.4375        0.092592        0.2031433095238095        0        
C4        C        0.46875        0.037037        0.2031433095238095        0        
C1        C        0.4375        0.12963        0.2031433095238095        0        
C2        C        0.46875        0.185185        0.2031433095238095        0        
C3        C        0.4375        0.203703        0.2031433095238095        0        
C4        C        0.46875        0.148148        0.2031433095238095        0        
C1        C        0.4375        0.24074099999999998        0.2031433095238095        0        
C2        C        0.46875        0.296297        0.2031433095238095        0        
C3        C        0.4375        0.314815        0.2031433095238095        0        
C4        C        0.46875        0.259259        0.2031433095238095        0        
C1        C        0.4375        0.351852        0.2031433095238095        0        
C2        C        0.46875        0.407408        0.2031433095238095        0        
C3        C        0.4375        0.42592500000000005        0.2031433095238095        0        
C4        C        0.46875        0.37037        0.2031433095238095        0        
C1        C        0.4375        0.46296300000000007        0.2031433095238095        0        
C2        C        0.46875        0.518519        0.2031433095238095        0        
C3        C        0.4375        0.537037        0.2031433095238095        0        
C4        C        0.46875        0.481481        0.2031433095238095        0        
C1        C        0.4375        0.574075        0.2031433095238095        0        
C2        C        0.46875        0.62963        0.2031433095238095        0        
C3        C        0.4375        0.648148        0.2031433095238095        0        
C4        C        0.46875        0.592592        0.2031433095238095        0        
C1        C        0.5        0.018519        0.2031433095238095        0        
C2        C        0.53125        0.074075        0.2031433095238095        0        
C3        C        0.5        0.092592        0.2031433095238095        0        
C4        C        0.53125        0.037037        0.2031433095238095        0        
C1        C        0.5        0.12963        0.2031433095238095        0        
C2        C        0.53125        0.185185        0.2031433095238095        0        
C3        C        0.5        0.203703        0.2031433095238095        0        
C4        C        0.53125        0.148148        0.2031433095238095        0        
C1        C        0.5        0.24074099999999998        0.2031433095238095        0        
C2        C        0.53125        0.296297        0.2031433095238095        0        
C3        C        0.5        0.314815        0.2031433095238095        0        
C4        C        0.53125        0.259259        0.2031433095238095        0        
C1        C        0.5        0.351852        0.2031433095238095        0        
C2        C        0.53125        0.407408        0.2031433095238095        0        
C3        C        0.5        0.42592500000000005        0.2031433095238095        0        
C4        C        0.53125        0.37037        0.2031433095238095        0        
C1        C        0.5        0.46296300000000007        0.2031433095238095        0        
C2        C        0.53125        0.518519        0.2031433095238095        0        
C3        C        0.5        0.537037        0.2031433095238095        0        
C4        C        0.53125        0.481481        0.2031433095238095        0        
C1        C        0.5        0.574075        0.2031433095238095        0        
C2        C        0.53125        0.62963        0.2031433095238095        0        
C3        C        0.5        0.648148        0.2031433095238095        0        
C4        C        0.53125        0.592592        0.2031433095238095        0        
C1        C        0.5625        0.018519        0.2031433095238095        0        
C2        C        0.59375        0.074075        0.2031433095238095        0        
C3        C        0.5625        0.092592        0.2031433095238095        0        
C4        C        0.59375        0.037037        0.2031433095238095        0        
C1        C        0.5625        0.12963        0.2031433095238095        0        
C2        C        0.59375        0.185185        0.2031433095238095        0        
C3        C        0.5625        0.203703        0.2031433095238095        0        
C4        C        0.59375        0.148148        0.2031433095238095        0        
C1        C        0.5625        0.24074099999999998        0.2031433095238095        0        
C2        C        0.59375        0.296297        0.2031433095238095        0        
C3        C        0.5625        0.314815        0.2031433095238095        0        
C4        C        0.59375        0.259259        0.2031433095238095        0        
C1        C        0.5625        0.351852        0.2031433095238095        0        
C2        C        0.59375        0.407408        0.2031433095238095        0        
C3        C        0.5625        0.42592500000000005        0.2031433095238095        0        
C4        C        0.59375        0.37037        0.2031433095238095        0        
C1        C        0.5625        0.46296300000000007        0.2031433095238095        0        
C2        C        0.59375        0.518519        0.2031433095238095        0        
C3        C        0.5625        0.537037        0.2031433095238095        0        
C4        C        0.59375        0.481481        0.2031433095238095        0        
C1        C        0.5625        0.574075        0.2031433095238095        0        
C2        C        0.59375        0.62963        0.2031433095238095        0        
C3        C        0.5625        0.648148        0.2031433095238095        0        
C4        C        0.59375        0.592592        0.2031433095238095        0        
C1        C        0.625        0.018519        0.2031433095238095        0        
C2        C        0.65625        0.074075        0.2031433095238095        0        
C3        C        0.625        0.092592        0.2031433095238095        0        
C4        C        0.65625        0.037037        0.2031433095238095        0        
C1        C        0.625        0.12963        0.2031433095238095        0        
C2        C        0.65625        0.185185        0.2031433095238095        0        
C3        C        0.625        0.203703        0.2031433095238095        0        
C4        C        0.65625        0.148148        0.2031433095238095        0        
C1        C        0.625        0.24074099999999998        0.2031433095238095        0        
C2        C        0.65625        0.296297        0.2031433095238095        0        
C3        C        0.625        0.314815        0.2031433095238095        0        
C4        C        0.65625        0.259259        0.2031433095238095        0        
C1        C        0.625        0.351852        0.2031433095238095        0        
C2        C        0.65625        0.407408        0.2031433095238095        0        
C3        C        0.625        0.42592500000000005        0.2031433095238095        0        
C4        C        0.65625        0.37037        0.2031433095238095        0        
C1        C        0.625        0.46296300000000007        0.2031433095238095        0        
C2        C        0.65625        0.518519        0.2031433095238095        0        
C3        C        0.625        0.537037        0.2031433095238095        0        
C4        C        0.65625        0.481481        0.2031433095238095        0        
C1        C        0.625        0.574075        0.2031433095238095        0        
C2        C        0.65625        0.62963        0.2031433095238095        0        
C3        C        0.625        0.648148        0.2031433095238095        0        
C4        C        0.65625        0.592592        0.2031433095238095        0        
C1        C        0.6875        0.018519        0.2031433095238095        0        
C2        C        0.71875        0.074075        0.2031433095238095        0        
C3        C        0.6875        0.092592        0.2031433095238095        0        
C4        C        0.71875        0.037037        0.2031433095238095        0        
C1        C        0.6875        0.12963        0.2031433095238095        0        
C2        C        0.71875        0.185185        0.2031433095238095        0        
C3        C        0.6875        0.203703        0.2031433095238095        0        
C4        C        0.71875        0.148148        0.2031433095238095        0        
C1        C        0.6875        0.24074099999999998        0.2031433095238095        0        
C2        C        0.71875        0.296297        0.2031433095238095        0        
C3        C        0.6875        0.314815        0.2031433095238095        0        
C4        C        0.71875        0.259259        0.2031433095238095        0        
C1        C        0.6875        0.351852        0.2031433095238095        0        
C2        C        0.71875        0.407408        0.2031433095238095        0        
C3        C        0.6875        0.42592500000000005        0.2031433095238095        0        
C4        C        0.71875        0.37037        0.2031433095238095        0        
C1        C        0.6875        0.46296300000000007        0.2031433095238095        0        
C2        C        0.71875        0.518519        0.2031433095238095        0        
C3        C        0.6875        0.537037        0.2031433095238095        0        
C4        C        0.71875        0.481481        0.2031433095238095        0        
C1        C        0.6875        0.574075        0.2031433095238095        0        
C2        C        0.71875        0.62963        0.2031433095238095        0        
C3        C        0.6875        0.648148        0.2031433095238095        0        
C4        C        0.71875        0.592592        0.2031433095238095        0        
C1        C        0.75        0.018519        0.2031433095238095        0        
C2        C        0.78125        0.074075        0.2031433095238095        0        
C3        C        0.75        0.092592        0.2031433095238095        0        
C4        C        0.78125        0.037037        0.2031433095238095        0        
C1        C        0.75        0.12963        0.2031433095238095        0        
C2        C        0.78125        0.185185        0.2031433095238095        0        
C3        C        0.75        0.203703        0.2031433095238095        0        
C4        C        0.78125        0.148148        0.2031433095238095        0        
C1        C        0.75        0.24074099999999998        0.2031433095238095        0        
C2        C        0.78125        0.296297        0.2031433095238095        0        
C3        C        0.75        0.314815        0.2031433095238095        0        
C4        C        0.78125        0.259259        0.2031433095238095        0        
C1        C        0.75        0.351852        0.2031433095238095        0        
C2        C        0.78125        0.407408        0.2031433095238095        0        
C3        C        0.75        0.42592500000000005        0.2031433095238095        0        
C4        C        0.78125        0.37037        0.2031433095238095        0        
C1        C        0.75        0.46296300000000007        0.2031433095238095        0        
C2        C        0.78125        0.518519        0.2031433095238095        0        
C3        C        0.75        0.537037        0.2031433095238095        0        
C4        C        0.78125        0.481481        0.2031433095238095        0        
C1        C        0.75        0.574075        0.2031433095238095        0        
C2        C        0.78125        0.62963        0.2031433095238095        0        
C3        C        0.75        0.648148        0.2031433095238095        0        
C4        C        0.78125        0.592592        0.2031433095238095        0        
C1        C        0.8125        0.018519        0.2031433095238095        0        
C2        C        0.84375        0.074075        0.2031433095238095        0        
C3        C        0.8125        0.092592        0.2031433095238095        0        
C4        C        0.84375        0.037037        0.2031433095238095        0        
C1        C        0.8125        0.12963        0.2031433095238095        0        
C2        C        0.84375        0.185185        0.2031433095238095        0        
C3        C        0.8125        0.203703        0.2031433095238095        0        
C4        C        0.84375        0.148148        0.2031433095238095        0        
C1        C        0.8125        0.24074099999999998        0.2031433095238095        0        
C2        C        0.84375        0.296297        0.2031433095238095        0        
C3        C        0.8125        0.314815        0.2031433095238095        0        
C4        C        0.84375        0.259259        0.2031433095238095        0        
C1        C        0.8125        0.351852        0.2031433095238095        0        
C2        C        0.84375        0.407408        0.2031433095238095        0        
C3        C        0.8125        0.42592500000000005        0.2031433095238095        0        
C4        C        0.84375        0.37037        0.2031433095238095        0        
C1        C        0.8125        0.46296300000000007        0.2031433095238095        0        
C2        C        0.84375        0.518519        0.2031433095238095        0        
C3        C        0.8125        0.537037        0.2031433095238095        0        
C4        C        0.84375        0.481481        0.2031433095238095        0        
C1        C        0.8125        0.574075        0.2031433095238095        0        
C2        C        0.84375        0.62963        0.2031433095238095        0        
C3        C        0.8125        0.648148        0.2031433095238095        0        
C4        C        0.84375        0.592592        0.2031433095238095        0        
C1        C        0.875        0.018519        0.2031433095238095        0        
C2        C        0.9062500000000001        0.074075        0.2031433095238095        0        
C3        C        0.875        0.092592        0.2031433095238095        0        
C4        C        0.9062500000000001        0.037037        0.2031433095238095        0        
C1        C        0.875        0.12963        0.2031433095238095        0        
C2        C        0.9062500000000001        0.185185        0.2031433095238095        0        
C3        C        0.875        0.203703        0.2031433095238095        0        
C4        C        0.9062500000000001        0.148148        0.2031433095238095        0        
C1        C        0.875        0.24074099999999998        0.2031433095238095        0        
C2        C        0.9062500000000001        0.296297        0.2031433095238095        0        
C3        C        0.875        0.314815        0.2031433095238095        0        
C4        C        0.9062500000000001        0.259259        0.2031433095238095        0        
C1        C        0.875        0.351852        0.2031433095238095        0        
C2        C        0.9062500000000001        0.407408        0.2031433095238095        0        
C3        C        0.875        0.42592500000000005        0.2031433095238095        0        
C4        C        0.9062500000000001        0.37037        0.2031433095238095        0        
C1        C        0.875        0.46296300000000007        0.2031433095238095        0        
C2        C        0.9062500000000001        0.518519        0.2031433095238095        0        
C3        C        0.875        0.537037        0.2031433095238095        0        
C4        C        0.9062500000000001        0.481481        0.2031433095238095        0        
C1        C        0.875        0.574075        0.2031433095238095        0        
C2        C        0.9062500000000001        0.62963        0.2031433095238095        0        
C3        C        0.875        0.648148        0.2031433095238095        0        
C4        C        0.9062500000000001        0.592592        0.2031433095238095        0        
C1        C        0.9375        0.018519        0.2031433095238095        0        
C2        C        0.9687500000000001        0.074075        0.2031433095238095        0        
C3        C        0.9375        0.092592        0.2031433095238095        0        
C4        C        0.9687500000000001        0.037037        0.2031433095238095        0        
C1        C        0.9375        0.12963        0.2031433095238095        0        
C2        C        0.9687500000000001        0.185185        0.2031433095238095        0        
C3        C        0.9375        0.203703        0.2031433095238095        0        
C4        C        0.9687500000000001        0.148148        0.2031433095238095        0        
C1        C        0.9375        0.24074099999999998        0.2031433095238095        0        
C2        C        0.9687500000000001        0.296297        0.2031433095238095        0        
C3        C        0.9375        0.314815        0.2031433095238095        0        
C4        C        0.9687500000000001        0.259259        0.2031433095238095        0        
C1        C        0.9375        0.351852        0.2031433095238095        0        
C2        C        0.9687500000000001        0.407408        0.2031433095238095        0        
C3        C        0.9375        0.42592500000000005        0.2031433095238095        0        
C4        C        0.9687500000000001        0.37037        0.2031433095238095        0        
C1        C        0.9375        0.46296300000000007        0.2031433095238095        0        
C2        C        0.9687500000000001        0.518519        0.2031433095238095        0        
C3        C        0.9375        0.537037        0.2031433095238095        0        
C4        C        0.9687500000000001        0.481481        0.2031433095238095        0        
C1        C        0.9375        0.574075        0.2031433095238095        0        
C2        C        0.9687500000000001        0.62963        0.2031433095238095        0        
C3        C        0.9375        0.648148        0.2031433095238095        0        
C4        C        0.9687500000000001        0.592592        0.2031433095238095        0        
C1        C        0.0        0.685186        0.2031433095238095        0        
C1        C        0.0625        0.685186        0.2031433095238095        0        
C1        C        0.125        0.685186        0.2031433095238095        0        
C1        C        0.1875        0.685186        0.2031433095238095        0        
C1        C        0.25        0.685186        0.2031433095238095        0        
C1        C        0.3125        0.685186        0.2031433095238095        0        
C1        C        0.375        0.685186        0.2031433095238095        0        
C1        C        0.4375        0.685186        0.2031433095238095        0        
C1        C        0.5        0.685186        0.2031433095238095        0        
C1        C        0.5625        0.685186        0.2031433095238095        0        
C1        C        0.625        0.685186        0.2031433095238095        0        
C1        C        0.6875        0.685186        0.2031433095238095        0        
C1        C        0.75        0.685186        0.2031433095238095        0        
C1        C        0.8125        0.685186        0.2031433095238095        0        
C1        C        0.875        0.685186        0.2031433095238095        0        
C1        C        0.9375        0.685186        0.2031433095238095        0        
C2        C        0.03125        0.740741        0.2031433095238095        0        
C2        C        0.09375        0.740741        0.2031433095238095        0        
C2        C        0.15625        0.740741        0.2031433095238095        0        
C2        C        0.21875        0.740741        0.2031433095238095        0        
C2        C        0.28125        0.740741        0.2031433095238095        0        
C2        C        0.34375        0.740741        0.2031433095238095        0        
C2        C        0.40625        0.740741        0.2031433095238095        0        
C2        C        0.46875        0.740741        0.2031433095238095        0        
C2        C        0.53125        0.740741        0.2031433095238095        0        
C2        C        0.59375        0.740741        0.2031433095238095        0        
C2        C        0.65625        0.740741        0.2031433095238095        0        
C2        C        0.71875        0.740741        0.2031433095238095        0        
C2        C        0.78125        0.740741        0.2031433095238095        0        
C2        C        0.84375        0.740741        0.2031433095238095        0        
C2        C        0.9062500000000001        0.740741        0.2031433095238095        0        
C2        C        0.9687500000000001        0.740741        0.2031433095238095        0        
C3        C        0.0        0.759259        0.2031433095238095        0        
C3        C        0.0625        0.759259        0.2031433095238095        0        
C3        C        0.125        0.759259        0.2031433095238095        0        
C3        C        0.1875        0.759259        0.2031433095238095        0        
C3        C        0.25        0.759259        0.2031433095238095        0        
C3        C        0.3125        0.759259        0.2031433095238095        0        
C3        C        0.375        0.759259        0.2031433095238095        0        
C3        C        0.4375        0.759259        0.2031433095238095        0        
C3        C        0.5        0.759259        0.2031433095238095        0        
C3        C        0.5625        0.759259        0.2031433095238095        0        
C3        C        0.625        0.759259        0.2031433095238095        0        
C3        C        0.6875        0.759259        0.2031433095238095        0        
C3        C        0.75        0.759259        0.2031433095238095        0        
C3        C        0.8125        0.759259        0.2031433095238095        0        
C3        C        0.875        0.759259        0.2031433095238095        0        
C3        C        0.9375        0.759259        0.2031433095238095        0        
C4        C        0.03125        0.703703        0.2031433095238095        0        
C4        C        0.09375        0.703703        0.2031433095238095        0        
C4        C        0.15625        0.703703        0.2031433095238095        0        
C4        C        0.21875        0.703703        0.2031433095238095        0        
C4        C        0.28125        0.703703        0.2031433095238095        0        
C4        C        0.34375        0.703703        0.2031433095238095        0        
C4        C        0.40625        0.703703        0.2031433095238095        0        
C4        C        0.46875        0.703703        0.2031433095238095        0        
C4        C        0.53125        0.703703        0.2031433095238095        0        
C4        C        0.59375        0.703703        0.2031433095238095        0        
C4        C        0.65625        0.703703        0.2031433095238095        0        
C4        C        0.71875        0.703703        0.2031433095238095        0        
C4        C        0.78125        0.703703        0.2031433095238095        0        
C4        C        0.84375        0.703703        0.2031433095238095        0        
C4        C        0.9062500000000001        0.703703        0.2031433095238095        0        
C4        C        0.9687500000000001        0.703703        0.2031433095238095        0        
C1        C        0.0        0.796297        0.2031433095238095        0        
C1        C        0.0625        0.796297        0.2031433095238095        0        
C1        C        0.125        0.796297        0.2031433095238095        0        
C1        C        0.1875        0.796297        0.2031433095238095        0        
C1        C        0.25        0.796297        0.2031433095238095        0        
C1        C        0.3125        0.796297        0.2031433095238095        0        
C1        C        0.375        0.796297        0.2031433095238095        0        
C1        C        0.4375        0.796297        0.2031433095238095        0        
C1        C        0.5        0.796297        0.2031433095238095        0        
C1        C        0.5625        0.796297        0.2031433095238095        0        
C1        C        0.625        0.796297        0.2031433095238095        0        
C1        C        0.6875        0.796297        0.2031433095238095        0        
C1        C        0.75        0.796297        0.2031433095238095        0        
C1        C        0.8125        0.796297        0.2031433095238095        0        
C1        C        0.875        0.796297        0.2031433095238095        0        
C1        C        0.9375        0.796297        0.2031433095238095        0        
C2        C        0.03125        0.851852        0.2031433095238095        0        
C2        C        0.09375        0.851852        0.2031433095238095        0        
C2        C        0.15625        0.851852        0.2031433095238095        0        
C2        C        0.21875        0.851852        0.2031433095238095        0        
C2        C        0.28125        0.851852        0.2031433095238095        0        
C2        C        0.34375        0.851852        0.2031433095238095        0        
C2        C        0.40625        0.851852        0.2031433095238095        0        
C2        C        0.46875        0.851852        0.2031433095238095        0        
C2        C        0.53125        0.851852        0.2031433095238095        0        
C2        C        0.59375        0.851852        0.2031433095238095        0        
C2        C        0.65625        0.851852        0.2031433095238095        0        
C2        C        0.71875        0.851852        0.2031433095238095        0        
C2        C        0.78125        0.851852        0.2031433095238095        0        
C2        C        0.84375        0.851852        0.2031433095238095        0        
C2        C        0.9062500000000001        0.851852        0.2031433095238095        0        
C2        C        0.9687500000000001        0.851852        0.2031433095238095        0        
C3        C        0.0        0.87037        0.2031433095238095        0        
C3        C        0.0625        0.87037        0.2031433095238095        0        
C3        C        0.125        0.87037        0.2031433095238095        0        
C3        C        0.1875        0.87037        0.2031433095238095        0        
C3        C        0.25        0.87037        0.2031433095238095        0        
C3        C        0.3125        0.87037        0.2031433095238095        0        
C3        C        0.375        0.87037        0.2031433095238095        0        
C3        C        0.4375        0.87037        0.2031433095238095        0        
C3        C        0.5        0.87037        0.2031433095238095        0        
C3        C        0.5625        0.87037        0.2031433095238095        0        
C3        C        0.625        0.87037        0.2031433095238095        0        
C3        C        0.6875        0.87037        0.2031433095238095        0        
C3        C        0.75        0.87037        0.2031433095238095        0        
C3        C        0.8125        0.87037        0.2031433095238095        0        
C3        C        0.875        0.87037        0.2031433095238095        0        
C3        C        0.9375        0.87037        0.2031433095238095        0        
C4        C        0.03125        0.814814        0.2031433095238095        0        
C4        C        0.09375        0.814814        0.2031433095238095        0        
C4        C        0.15625        0.814814        0.2031433095238095        0        
C4        C        0.21875        0.814814        0.2031433095238095        0        
C4        C        0.28125        0.814814        0.2031433095238095        0        
C4        C        0.34375        0.814814        0.2031433095238095        0        
C4        C        0.40625        0.814814        0.2031433095238095        0        
C4        C        0.46875        0.814814        0.2031433095238095        0        
C4        C        0.53125        0.814814        0.2031433095238095        0        
C4        C        0.59375        0.814814        0.2031433095238095        0        
C4        C        0.65625        0.814814        0.2031433095238095        0        
C4        C        0.71875        0.814814        0.2031433095238095        0        
C4        C        0.78125        0.814814        0.2031433095238095        0        
C4        C        0.84375        0.814814        0.2031433095238095        0        
C4        C        0.9062500000000001        0.814814        0.2031433095238095        0        
C4        C        0.9687500000000001        0.814814        0.2031433095238095        0        
C1        C        0.0        0.907408        0.2031433095238095        0        
C1        C        0.0625        0.907408        0.2031433095238095        0        
C1        C        0.125        0.907408        0.2031433095238095        0        
C1        C        0.1875        0.907408        0.2031433095238095        0        
C1        C        0.25        0.907408        0.2031433095238095        0        
C1        C        0.3125        0.907408        0.2031433095238095        0        
C1        C        0.375        0.907408        0.2031433095238095        0        
C1        C        0.4375        0.907408        0.2031433095238095        0        
C1        C        0.5        0.907408        0.2031433095238095        0        
C1        C        0.5625        0.907408        0.2031433095238095        0        
C1        C        0.625        0.907408        0.2031433095238095        0        
C1        C        0.6875        0.907408        0.2031433095238095        0        
C1        C        0.75        0.907408        0.2031433095238095        0        
C1        C        0.8125        0.907408        0.2031433095238095        0        
C1        C        0.875        0.907408        0.2031433095238095        0        
C1        C        0.9375        0.907408        0.2031433095238095        0        
C2        C        0.03125        0.962963        0.2031433095238095        0        
C2        C        0.09375        0.962963        0.2031433095238095        0        
C2        C        0.15625        0.962963        0.2031433095238095        0        
C2        C        0.21875        0.962963        0.2031433095238095        0        
C2        C        0.28125        0.962963        0.2031433095238095        0        
C2        C        0.34375        0.962963        0.2031433095238095        0        
C2        C        0.40625        0.962963        0.2031433095238095        0        
C2        C        0.46875        0.962963        0.2031433095238095        0        
C2        C        0.53125        0.962963        0.2031433095238095        0        
C2        C        0.59375        0.962963        0.2031433095238095        0        
C2        C        0.65625        0.962963        0.2031433095238095        0        
C2        C        0.71875        0.962963        0.2031433095238095        0        
C2        C        0.78125        0.962963        0.2031433095238095        0        
C2        C        0.84375        0.962963        0.2031433095238095        0        
C2        C        0.9062500000000001        0.962963        0.2031433095238095        0        
C2        C        0.9687500000000001        0.962963        0.2031433095238095        0        
C3        C        0.0        0.9814809999999999        0.2031433095238095        0        
C3        C        0.0625        0.9814809999999999        0.2031433095238095        0        
C3        C        0.125        0.9814809999999999        0.2031433095238095        0        
C3        C        0.1875        0.9814809999999999        0.2031433095238095        0        
C3        C        0.25        0.9814809999999999        0.2031433095238095        0        
C3        C        0.3125        0.9814809999999999        0.2031433095238095        0        
C3        C        0.375        0.9814809999999999        0.2031433095238095        0        
C3        C        0.4375        0.9814809999999999        0.2031433095238095        0        
C3        C        0.5        0.9814809999999999        0.2031433095238095        0        
C3        C        0.5625        0.9814809999999999        0.2031433095238095        0        
C3        C        0.625        0.9814809999999999        0.2031433095238095        0        
C3        C        0.6875        0.9814809999999999        0.2031433095238095        0        
C3        C        0.75        0.9814809999999999        0.2031433095238095        0        
C3        C        0.8125        0.9814809999999999        0.2031433095238095        0        
C3        C        0.875        0.9814809999999999        0.2031433095238095        0        
C3        C        0.9375        0.9814809999999999        0.2031433095238095        0        
C4        C        0.03125        0.925925        0.2031433095238095        0        
C4        C        0.09375        0.925925        0.2031433095238095        0        
C4        C        0.15625        0.925925        0.2031433095238095        0        
C4        C        0.21875        0.925925        0.2031433095238095        0        
C4        C        0.28125        0.925925        0.2031433095238095        0        
C4        C        0.34375        0.925925        0.2031433095238095        0        
C4        C        0.40625        0.925925        0.2031433095238095        0        
C4        C        0.46875        0.925925        0.2031433095238095        0        
C4        C        0.53125        0.925925        0.2031433095238095        0        
C4        C        0.59375        0.925925        0.2031433095238095        0        
C4        C        0.65625        0.925925        0.2031433095238095        0        
C4        C        0.71875        0.925925        0.2031433095238095        0        
C4        C        0.78125        0.925925        0.2031433095238095        0        
C4        C        0.84375        0.925925        0.2031433095238095        0        
C4        C        0.9062500000000001        0.925925        0.2031433095238095        0        
C4        C        0.9687500000000001        0.925925        0.2031433095238095        0        
C_FG        C        0.0        0.018519        0.33607930952380954        0.2        
C2        C        0.03125        0.074075        0.33607930952380954        0        
C3        C        0.0        0.092592        0.33607930952380954        0        
C4        C        0.03125        0.037037        0.33607930952380954        0        
C_FG        C        0.0        0.12963        0.33607930952380954        0.2        
C2        C        0.03125        0.185185        0.33607930952380954        0        
C3        C        0.0        0.203703        0.33607930952380954        0        
C4        C        0.03125        0.148148        0.33607930952380954        0        
C_FG        C        0.0        0.24074099999999998        0.33607930952380954        0.2        
C2        C        0.03125        0.296297        0.33607930952380954        0        
C3        C        0.0        0.314815        0.33607930952380954        0        
C4        C        0.03125        0.259259        0.33607930952380954        0        
C_FG        C        0.0        0.351852        0.33607930952380954        0.2        
C2        C        0.03125        0.407408        0.33607930952380954        0        
C3        C        0.0        0.42592500000000005        0.33607930952380954        0        
C4        C        0.03125        0.37037        0.33607930952380954        0        
C_FG        C        0.0        0.46296300000000007        0.33607930952380954        0.2        
C2        C        0.03125        0.518519        0.33607930952380954        0        
C3        C        0.0        0.537037        0.33607930952380954        0        
C4        C        0.03125        0.481481        0.33607930952380954        0        
C_FG        C        0.0        0.574075        0.33607930952380954        0.2        
C2        C        0.03125        0.62963        0.33607930952380954        0        
C3        C        0.0        0.648148        0.33607930952380954        0        
C4        C        0.03125        0.592592        0.33607930952380954        0        
C1        C        0.0625        0.018519        0.33607930952380954        0        
C2        C        0.09375        0.074075        0.33607930952380954        0        
C3        C        0.0625        0.092592        0.33607930952380954        0        
C4        C        0.09375        0.037037        0.33607930952380954        0        
C1        C        0.0625        0.12963        0.33607930952380954        0        
C2        C        0.09375        0.185185        0.33607930952380954        0        
C3        C        0.0625        0.203703        0.33607930952380954        0        
C4        C        0.09375        0.148148        0.33607930952380954        0        
C1        C        0.0625        0.24074099999999998        0.33607930952380954        0        
C2        C        0.09375        0.296297        0.33607930952380954        0        
C3        C        0.0625        0.314815        0.33607930952380954        0        
C4        C        0.09375        0.259259        0.33607930952380954        0        
C1        C        0.0625        0.351852        0.33607930952380954        0        
C2        C        0.09375        0.407408        0.33607930952380954        0        
C3        C        0.0625        0.42592500000000005        0.33607930952380954        0        
C4        C        0.09375        0.37037        0.33607930952380954        0        
C1        C        0.0625        0.46296300000000007        0.33607930952380954        0        
C2        C        0.09375        0.518519        0.33607930952380954        0        
C3        C        0.0625        0.537037        0.33607930952380954        0        
C4        C        0.09375        0.481481        0.33607930952380954        0        
C1        C        0.0625        0.574075        0.33607930952380954        0        
C2        C        0.09375        0.62963        0.33607930952380954        0        
C3        C        0.0625        0.648148        0.33607930952380954        0        
C4        C        0.09375        0.592592        0.33607930952380954        0        
C1        C        0.125        0.018519        0.33607930952380954        0        
C2        C        0.15625        0.074075        0.33607930952380954        0        
C3        C        0.125        0.092592        0.33607930952380954        0        
C4        C        0.15625        0.037037        0.33607930952380954        0        
C1        C        0.125        0.12963        0.33607930952380954        0        
C2        C        0.15625        0.185185        0.33607930952380954        0        
C3        C        0.125        0.203703        0.33607930952380954        0        
C4        C        0.15625        0.148148        0.33607930952380954        0        
C1        C        0.125        0.24074099999999998        0.33607930952380954        0        
C2        C        0.15625        0.296297        0.33607930952380954        0        
C3        C        0.125        0.314815        0.33607930952380954        0        
C4        C        0.15625        0.259259        0.33607930952380954        0        
C1        C        0.125        0.351852        0.33607930952380954        0        
C2        C        0.15625        0.407408        0.33607930952380954        0        
C3        C        0.125        0.42592500000000005        0.33607930952380954        0        
C4        C        0.15625        0.37037        0.33607930952380954        0        
C1        C        0.125        0.46296300000000007        0.33607930952380954        0        
C2        C        0.15625        0.518519        0.33607930952380954        0        
C3        C        0.125        0.537037        0.33607930952380954        0        
C4        C        0.15625        0.481481        0.33607930952380954        0        
C1        C        0.125        0.574075        0.33607930952380954        0        
C2        C        0.15625        0.62963        0.33607930952380954        0        
C3        C        0.125        0.648148        0.33607930952380954        0        
C4        C        0.15625        0.592592        0.33607930952380954        0        
C1        C        0.1875        0.018519        0.33607930952380954        0        
C2        C        0.21875        0.074075        0.33607930952380954        0        
C3        C        0.1875        0.092592        0.33607930952380954        0        
C4        C        0.21875        0.037037        0.33607930952380954        0        
C1        C        0.1875        0.12963        0.33607930952380954        0        
C2        C        0.21875        0.185185        0.33607930952380954        0        
C3        C        0.1875        0.203703        0.33607930952380954        0        
C4        C        0.21875        0.148148        0.33607930952380954        0        
C1        C        0.1875        0.24074099999999998        0.33607930952380954        0        
C2        C        0.21875        0.296297        0.33607930952380954        0        
C3        C        0.1875        0.314815        0.33607930952380954        0        
C4        C        0.21875        0.259259        0.33607930952380954        0        
C1        C        0.1875        0.351852        0.33607930952380954        0        
C2        C        0.21875        0.407408        0.33607930952380954        0        
C3        C        0.1875        0.42592500000000005        0.33607930952380954        0        
C4        C        0.21875        0.37037        0.33607930952380954        0        
C1        C        0.1875        0.46296300000000007        0.33607930952380954        0        
C2        C        0.21875        0.518519        0.33607930952380954        0        
C3        C        0.1875        0.537037        0.33607930952380954        0        
C4        C        0.21875        0.481481        0.33607930952380954        0        
C1        C        0.1875        0.574075        0.33607930952380954        0        
C2        C        0.21875        0.62963        0.33607930952380954        0        
C3        C        0.1875        0.648148        0.33607930952380954        0        
C4        C        0.21875        0.592592        0.33607930952380954        0        
C_FG        C        0.25        0.018519        0.33607930952380954        0.2        
C2        C        0.28125        0.074075        0.33607930952380954        0        
C3        C        0.25        0.092592        0.33607930952380954        0        
C4        C        0.28125        0.037037        0.33607930952380954        0        
C_FG        C        0.25        0.12963        0.33607930952380954        0.2        
C2        C        0.28125        0.185185        0.33607930952380954        0        
C3        C        0.25        0.203703        0.33607930952380954        0        
C4        C        0.28125        0.148148        0.33607930952380954        0        
C_FG        C        0.25        0.24074099999999998        0.33607930952380954        0.2        
C2        C        0.28125        0.296297        0.33607930952380954        0        
C3        C        0.25        0.314815        0.33607930952380954        0        
C4        C        0.28125        0.259259        0.33607930952380954        0        
C_FG        C        0.25        0.351852        0.33607930952380954        0.2        
C2        C        0.28125        0.407408        0.33607930952380954        0        
C3        C        0.25        0.42592500000000005        0.33607930952380954        0        
C4        C        0.28125        0.37037        0.33607930952380954        0        
C_FG        C        0.25        0.46296300000000007        0.33607930952380954        0.2        
C2        C        0.28125        0.518519        0.33607930952380954        0        
C3        C        0.25        0.537037        0.33607930952380954        0        
C4        C        0.28125        0.481481        0.33607930952380954        0        
C_FG        C        0.25        0.574075        0.33607930952380954        0.2        
C2        C        0.28125        0.62963        0.33607930952380954        0        
C3        C        0.25        0.648148        0.33607930952380954        0        
C4        C        0.28125        0.592592        0.33607930952380954        0        
C1        C        0.3125        0.018519        0.33607930952380954        0        
C2        C        0.34375        0.074075        0.33607930952380954        0        
C3        C        0.3125        0.092592        0.33607930952380954        0        
C4        C        0.34375        0.037037        0.33607930952380954        0        
C1        C        0.3125        0.12963        0.33607930952380954        0        
C2        C        0.34375        0.185185        0.33607930952380954        0        
C3        C        0.3125        0.203703        0.33607930952380954        0        
C4        C        0.34375        0.148148        0.33607930952380954        0        
C1        C        0.3125        0.24074099999999998        0.33607930952380954        0        
C2        C        0.34375        0.296297        0.33607930952380954        0        
C3        C        0.3125        0.314815        0.33607930952380954        0        
C4        C        0.34375        0.259259        0.33607930952380954        0        
C1        C        0.3125        0.351852        0.33607930952380954        0        
C2        C        0.34375        0.407408        0.33607930952380954        0        
C3        C        0.3125        0.42592500000000005        0.33607930952380954        0        
C4        C        0.34375        0.37037        0.33607930952380954        0        
C1        C        0.3125        0.46296300000000007        0.33607930952380954        0        
C2        C        0.34375        0.518519        0.33607930952380954        0        
C3        C        0.3125        0.537037        0.33607930952380954        0        
C4        C        0.34375        0.481481        0.33607930952380954        0        
C1        C        0.3125        0.574075        0.33607930952380954        0        
C2        C        0.34375        0.62963        0.33607930952380954        0        
C3        C        0.3125        0.648148        0.33607930952380954        0        
C4        C        0.34375        0.592592        0.33607930952380954        0        
C1        C        0.375        0.018519        0.33607930952380954        0        
C2        C        0.40625        0.074075        0.33607930952380954        0        
C3        C        0.375        0.092592        0.33607930952380954        0        
C4        C        0.40625        0.037037        0.33607930952380954        0        
C1        C        0.375        0.12963        0.33607930952380954        0        
C2        C        0.40625        0.185185        0.33607930952380954        0        
C3        C        0.375        0.203703        0.33607930952380954        0        
C4        C        0.40625        0.148148        0.33607930952380954        0        
C1        C        0.375        0.24074099999999998        0.33607930952380954        0        
C2        C        0.40625        0.296297        0.33607930952380954        0        
C3        C        0.375        0.314815        0.33607930952380954        0        
C4        C        0.40625        0.259259        0.33607930952380954        0        
C1        C        0.375        0.351852        0.33607930952380954        0        
C2        C        0.40625        0.407408        0.33607930952380954        0        
C3        C        0.375        0.42592500000000005        0.33607930952380954        0        
C4        C        0.40625        0.37037        0.33607930952380954        0        
C1        C        0.375        0.46296300000000007        0.33607930952380954        0        
C2        C        0.40625        0.518519        0.33607930952380954        0        
C3        C        0.375        0.537037        0.33607930952380954        0        
C4        C        0.40625        0.481481        0.33607930952380954        0        
C1        C        0.375        0.574075        0.33607930952380954        0        
C2        C        0.40625        0.62963        0.33607930952380954        0        
C3        C        0.375        0.648148        0.33607930952380954        0        
C4        C        0.40625        0.592592        0.33607930952380954        0        
C1        C        0.4375        0.018519        0.33607930952380954        0        
C2        C        0.46875        0.074075        0.33607930952380954        0        
C3        C        0.4375        0.092592        0.33607930952380954        0        
C4        C        0.46875        0.037037        0.33607930952380954        0        
C1        C        0.4375        0.12963        0.33607930952380954        0        
C2        C        0.46875        0.185185        0.33607930952380954        0        
C3        C        0.4375        0.203703        0.33607930952380954        0        
C4        C        0.46875        0.148148        0.33607930952380954        0        
C1        C        0.4375        0.24074099999999998        0.33607930952380954        0        
C2        C        0.46875        0.296297        0.33607930952380954        0        
C3        C        0.4375        0.314815        0.33607930952380954        0        
C4        C        0.46875        0.259259        0.33607930952380954        0        
C1        C        0.4375        0.351852        0.33607930952380954        0        
C2        C        0.46875        0.407408        0.33607930952380954        0        
C3        C        0.4375        0.42592500000000005        0.33607930952380954        0        
C4        C        0.46875        0.37037        0.33607930952380954        0        
C1        C        0.4375        0.46296300000000007        0.33607930952380954        0        
C2        C        0.46875        0.518519        0.33607930952380954        0        
C3        C        0.4375        0.537037        0.33607930952380954        0        
C4        C        0.46875        0.481481        0.33607930952380954        0        
C1        C        0.4375        0.574075        0.33607930952380954        0        
C2        C        0.46875        0.62963        0.33607930952380954        0        
C3        C        0.4375        0.648148        0.33607930952380954        0        
C4        C        0.46875        0.592592        0.33607930952380954        0        
C1        C        0.5        0.018519        0.33607930952380954        0        
C2        C        0.53125        0.074075        0.33607930952380954        0        
C3        C        0.5        0.092592        0.33607930952380954        0        
C4        C        0.53125        0.037037        0.33607930952380954        0        
C1        C        0.5        0.12963        0.33607930952380954        0        
C2        C        0.53125        0.185185        0.33607930952380954        0        
C3        C        0.5        0.203703        0.33607930952380954        0        
C4        C        0.53125        0.148148        0.33607930952380954        0        
C1        C        0.5        0.24074099999999998        0.33607930952380954        0        
C2        C        0.53125        0.296297        0.33607930952380954        0        
C3        C        0.5        0.314815        0.33607930952380954        0        
C4        C        0.53125        0.259259        0.33607930952380954        0        
C1        C        0.5        0.351852        0.33607930952380954        0        
C2        C        0.53125        0.407408        0.33607930952380954        0        
C3        C        0.5        0.42592500000000005        0.33607930952380954        0        
C4        C        0.53125        0.37037        0.33607930952380954        0        
C1        C        0.5        0.46296300000000007        0.33607930952380954        0        
C2        C        0.53125        0.518519        0.33607930952380954        0        
C3        C        0.5        0.537037        0.33607930952380954        0        
C4        C        0.53125        0.481481        0.33607930952380954        0        
C1        C        0.5        0.574075        0.33607930952380954        0        
C2        C        0.53125        0.62963        0.33607930952380954        0        
C3        C        0.5        0.648148        0.33607930952380954        0        
C4        C        0.53125        0.592592        0.33607930952380954        0        
C1        C        0.5625        0.018519        0.33607930952380954        0        
C2        C        0.59375        0.074075        0.33607930952380954        0        
C3        C        0.5625        0.092592        0.33607930952380954        0        
C4        C        0.59375        0.037037        0.33607930952380954        0        
C1        C        0.5625        0.12963        0.33607930952380954        0        
C2        C        0.59375        0.185185        0.33607930952380954        0        
C3        C        0.5625        0.203703        0.33607930952380954        0        
C4        C        0.59375        0.148148        0.33607930952380954        0        
C1        C        0.5625        0.24074099999999998        0.33607930952380954        0        
C2        C        0.59375        0.296297        0.33607930952380954        0        
C3        C        0.5625        0.314815        0.33607930952380954        0        
C4        C        0.59375        0.259259        0.33607930952380954        0        
C1        C        0.5625        0.351852        0.33607930952380954        0        
C2        C        0.59375        0.407408        0.33607930952380954        0        
C3        C        0.5625        0.42592500000000005        0.33607930952380954        0        
C4        C        0.59375        0.37037        0.33607930952380954        0        
C1        C        0.5625        0.46296300000000007        0.33607930952380954        0        
C2        C        0.59375        0.518519        0.33607930952380954        0        
C3        C        0.5625        0.537037        0.33607930952380954        0        
C4        C        0.59375        0.481481        0.33607930952380954        0        
C1        C        0.5625        0.574075        0.33607930952380954        0        
C2        C        0.59375        0.62963        0.33607930952380954        0        
C3        C        0.5625        0.648148        0.33607930952380954        0        
C4        C        0.59375        0.592592        0.33607930952380954        0        
C1        C        0.625        0.018519        0.33607930952380954        0        
C2        C        0.65625        0.074075        0.33607930952380954        0        
C3        C        0.625        0.092592        0.33607930952380954        0        
C4        C        0.65625        0.037037        0.33607930952380954        0        
C1        C        0.625        0.12963        0.33607930952380954        0        
C2        C        0.65625        0.185185        0.33607930952380954        0        
C3        C        0.625        0.203703        0.33607930952380954        0        
C4        C        0.65625        0.148148        0.33607930952380954        0        
C1        C        0.625        0.24074099999999998        0.33607930952380954        0        
C2        C        0.65625        0.296297        0.33607930952380954        0        
C3        C        0.625        0.314815        0.33607930952380954        0        
C4        C        0.65625        0.259259        0.33607930952380954        0        
C1        C        0.625        0.351852        0.33607930952380954        0        
C2        C        0.65625        0.407408        0.33607930952380954        0        
C3        C        0.625        0.42592500000000005        0.33607930952380954        0        
C4        C        0.65625        0.37037        0.33607930952380954        0        
C1        C        0.625        0.46296300000000007        0.33607930952380954        0        
C2        C        0.65625        0.518519        0.33607930952380954        0        
C3        C        0.625        0.537037        0.33607930952380954        0        
C4        C        0.65625        0.481481        0.33607930952380954        0        
C1        C        0.625        0.574075        0.33607930952380954        0        
C2        C        0.65625        0.62963        0.33607930952380954        0        
C3        C        0.625        0.648148        0.33607930952380954        0        
C4        C        0.65625        0.592592        0.33607930952380954        0        
C1        C        0.6875        0.018519        0.33607930952380954        0        
C2        C        0.71875        0.074075        0.33607930952380954        0        
C3        C        0.6875        0.092592        0.33607930952380954        0        
C4        C        0.71875        0.037037        0.33607930952380954        0        
C1        C        0.6875        0.12963        0.33607930952380954        0        
C2        C        0.71875        0.185185        0.33607930952380954        0        
C3        C        0.6875        0.203703        0.33607930952380954        0        
C4        C        0.71875        0.148148        0.33607930952380954        0        
C1        C        0.6875        0.24074099999999998        0.33607930952380954        0        
C2        C        0.71875        0.296297        0.33607930952380954        0        
C3        C        0.6875        0.314815        0.33607930952380954        0        
C4        C        0.71875        0.259259        0.33607930952380954        0        
C1        C        0.6875        0.351852        0.33607930952380954        0        
C2        C        0.71875        0.407408        0.33607930952380954        0        
C3        C        0.6875        0.42592500000000005        0.33607930952380954        0        
C4        C        0.71875        0.37037        0.33607930952380954        0        
C1        C        0.6875        0.46296300000000007        0.33607930952380954        0        
C2        C        0.71875        0.518519        0.33607930952380954        0        
C3        C        0.6875        0.537037        0.33607930952380954        0        
C4        C        0.71875        0.481481        0.33607930952380954        0        
C1        C        0.6875        0.574075        0.33607930952380954        0        
C2        C        0.71875        0.62963        0.33607930952380954        0        
C3        C        0.6875        0.648148        0.33607930952380954        0        
C4        C        0.71875        0.592592        0.33607930952380954        0        
C_FG        C        0.75        0.018519        0.33607930952380954        0.2        
C2        C        0.78125        0.074075        0.33607930952380954        0        
C3        C        0.75        0.092592        0.33607930952380954        0        
C4        C        0.78125        0.037037        0.33607930952380954        0        
C_FG        C        0.75        0.12963        0.33607930952380954        0.2        
C2        C        0.78125        0.185185        0.33607930952380954        0        
C3        C        0.75        0.203703        0.33607930952380954        0        
C4        C        0.78125        0.148148        0.33607930952380954        0        
C_FG        C        0.75        0.24074099999999998        0.33607930952380954        0.2        
C2        C        0.78125        0.296297        0.33607930952380954        0        
C3        C        0.75        0.314815        0.33607930952380954        0        
C4        C        0.78125        0.259259        0.33607930952380954        0        
C_FG        C        0.75        0.351852        0.33607930952380954        0.2        
C2        C        0.78125        0.407408        0.33607930952380954        0        
C3        C        0.75        0.42592500000000005        0.33607930952380954        0        
C4        C        0.78125        0.37037        0.33607930952380954        0        
C_FG        C        0.75        0.46296300000000007        0.33607930952380954        0.2        
C2        C        0.78125        0.518519        0.33607930952380954        0        
C3        C        0.75        0.537037        0.33607930952380954        0        
C4        C        0.78125        0.481481        0.33607930952380954        0        
C_FG        C        0.75        0.574075        0.33607930952380954        0.2        
C2        C        0.78125        0.62963        0.33607930952380954        0        
C3        C        0.75        0.648148        0.33607930952380954        0        
C4        C        0.78125        0.592592        0.33607930952380954        0        
C1        C        0.8125        0.018519        0.33607930952380954        0        
C2        C        0.84375        0.074075        0.33607930952380954        0        
C3        C        0.8125        0.092592        0.33607930952380954        0        
C4        C        0.84375        0.037037        0.33607930952380954        0        
C1        C        0.8125        0.12963        0.33607930952380954        0        
C2        C        0.84375        0.185185        0.33607930952380954        0        
C3        C        0.8125        0.203703        0.33607930952380954        0        
C4        C        0.84375        0.148148        0.33607930952380954        0        
C1        C        0.8125        0.24074099999999998        0.33607930952380954        0        
C2        C        0.84375        0.296297        0.33607930952380954        0        
C3        C        0.8125        0.314815        0.33607930952380954        0        
C4        C        0.84375        0.259259        0.33607930952380954        0        
C1        C        0.8125        0.351852        0.33607930952380954        0        
C2        C        0.84375        0.407408        0.33607930952380954        0        
C3        C        0.8125        0.42592500000000005        0.33607930952380954        0        
C4        C        0.84375        0.37037        0.33607930952380954        0        
C1        C        0.8125        0.46296300000000007        0.33607930952380954        0        
C2        C        0.84375        0.518519        0.33607930952380954        0        
C3        C        0.8125        0.537037        0.33607930952380954        0        
C4        C        0.84375        0.481481        0.33607930952380954        0        
C1        C        0.8125        0.574075        0.33607930952380954        0        
C2        C        0.84375        0.62963        0.33607930952380954        0        
C3        C        0.8125        0.648148        0.33607930952380954        0        
C4        C        0.84375        0.592592        0.33607930952380954        0        
C1        C        0.875        0.018519        0.33607930952380954        0        
C2        C        0.9062500000000001        0.074075        0.33607930952380954        0        
C3        C        0.875        0.092592        0.33607930952380954        0        
C4        C        0.9062500000000001        0.037037        0.33607930952380954        0        
C1        C        0.875        0.12963        0.33607930952380954        0        
C2        C        0.9062500000000001        0.185185        0.33607930952380954        0        
C3        C        0.875        0.203703        0.33607930952380954        0        
C4        C        0.9062500000000001        0.148148        0.33607930952380954        0        
C1        C        0.875        0.24074099999999998        0.33607930952380954        0        
C2        C        0.9062500000000001        0.296297        0.33607930952380954        0        
C3        C        0.875        0.314815        0.33607930952380954        0        
C4        C        0.9062500000000001        0.259259        0.33607930952380954        0        
C1        C        0.875        0.351852        0.33607930952380954        0        
C2        C        0.9062500000000001        0.407408        0.33607930952380954        0        
C3        C        0.875        0.42592500000000005        0.33607930952380954        0        
C4        C        0.9062500000000001        0.37037        0.33607930952380954        0        
C1        C        0.875        0.46296300000000007        0.33607930952380954        0        
C2        C        0.9062500000000001        0.518519        0.33607930952380954        0        
C3        C        0.875        0.537037        0.33607930952380954        0        
C4        C        0.9062500000000001        0.481481        0.33607930952380954        0        
C1        C        0.875        0.574075        0.33607930952380954        0        
C2        C        0.9062500000000001        0.62963        0.33607930952380954        0        
C3        C        0.875        0.648148        0.33607930952380954        0        
C4        C        0.9062500000000001        0.592592        0.33607930952380954        0        
C1        C        0.9375        0.018519        0.33607930952380954        0        
C2        C        0.9687500000000001        0.074075        0.33607930952380954        0        
C3        C        0.9375        0.092592        0.33607930952380954        0        
C4        C        0.9687500000000001        0.037037        0.33607930952380954        0        
C1        C        0.9375        0.12963        0.33607930952380954        0        
C2        C        0.9687500000000001        0.185185        0.33607930952380954        0        
C3        C        0.9375        0.203703        0.33607930952380954        0        
C4        C        0.9687500000000001        0.148148        0.33607930952380954        0        
C1        C        0.9375        0.24074099999999998        0.33607930952380954        0        
C2        C        0.9687500000000001        0.296297        0.33607930952380954        0        
C3        C        0.9375        0.314815        0.33607930952380954        0        
C4        C        0.9687500000000001        0.259259        0.33607930952380954        0        
C1        C        0.9375        0.351852        0.33607930952380954        0        
C2        C        0.9687500000000001        0.407408        0.33607930952380954        0        
C3        C        0.9375        0.42592500000000005        0.33607930952380954        0        
C4        C        0.9687500000000001        0.37037        0.33607930952380954        0        
C1        C        0.9375        0.46296300000000007        0.33607930952380954        0        
C2        C        0.9687500000000001        0.518519        0.33607930952380954        0        
C3        C        0.9375        0.537037        0.33607930952380954        0        
C4        C        0.9687500000000001        0.481481        0.33607930952380954        0        
C1        C        0.9375        0.574075        0.33607930952380954        0        
C2        C        0.9687500000000001        0.62963        0.33607930952380954        0        
C3        C        0.9375        0.648148        0.33607930952380954        0        
C4        C        0.9687500000000001        0.592592        0.33607930952380954        0        
C_FG        C        0.0        0.685186        0.33607930952380954        0.2        
C1        C        0.0625        0.685186        0.33607930952380954        0        
C1        C        0.125        0.685186        0.33607930952380954        0        
C1        C        0.1875        0.685186        0.33607930952380954        0        
C_FG        C        0.25        0.685186        0.33607930952380954        0.2        
C1        C        0.3125        0.685186        0.33607930952380954        0        
C1        C        0.375        0.685186        0.33607930952380954        0        
C1        C        0.4375        0.685186        0.33607930952380954        0        
C1        C        0.5        0.685186        0.33607930952380954        0        
C1        C        0.5625        0.685186        0.33607930952380954        0        
C1        C        0.625        0.685186        0.33607930952380954        0        
C1        C        0.6875        0.685186        0.33607930952380954        0        
C_FG        C        0.75        0.685186        0.33607930952380954        0.2        
C1        C        0.8125        0.685186        0.33607930952380954        0        
C1        C        0.875        0.685186        0.33607930952380954        0        
C1        C        0.9375        0.685186        0.33607930952380954        0        
C2        C        0.03125        0.740741        0.33607930952380954        0        
C2        C        0.09375        0.740741        0.33607930952380954        0        
C2        C        0.15625        0.740741        0.33607930952380954        0        
C2        C        0.21875        0.740741        0.33607930952380954        0        
C2        C        0.28125        0.740741        0.33607930952380954        0        
C2        C        0.34375        0.740741        0.33607930952380954        0        
C2        C        0.40625        0.740741        0.33607930952380954        0        
C2        C        0.46875        0.740741        0.33607930952380954        0        
C2        C        0.53125        0.740741        0.33607930952380954        0        
C2        C        0.59375        0.740741        0.33607930952380954        0        
C2        C        0.65625        0.740741        0.33607930952380954        0        
C2        C        0.71875        0.740741        0.33607930952380954        0        
C2        C        0.78125        0.740741        0.33607930952380954        0        
C2        C        0.84375        0.740741        0.33607930952380954        0        
C2        C        0.9062500000000001        0.740741        0.33607930952380954        0        
C2        C        0.9687500000000001        0.740741        0.33607930952380954        0        
C3        C        0.0        0.759259        0.33607930952380954        0        
C3        C        0.0625        0.759259        0.33607930952380954        0        
C3        C        0.125        0.759259        0.33607930952380954        0        
C3        C        0.1875        0.759259        0.33607930952380954        0        
C3        C        0.25        0.759259        0.33607930952380954        0        
C3        C        0.3125        0.759259        0.33607930952380954        0        
C3        C        0.375        0.759259        0.33607930952380954        0        
C3        C        0.4375        0.759259        0.33607930952380954        0        
C3        C        0.5        0.759259        0.33607930952380954        0        
C3        C        0.5625        0.759259        0.33607930952380954        0        
C3        C        0.625        0.759259        0.33607930952380954        0        
C3        C        0.6875        0.759259        0.33607930952380954        0        
C3        C        0.75        0.759259        0.33607930952380954        0        
C3        C        0.8125        0.759259        0.33607930952380954        0        
C3        C        0.875        0.759259        0.33607930952380954        0        
C3        C        0.9375        0.759259        0.33607930952380954        0        
C4        C        0.03125        0.703703        0.33607930952380954        0        
C4        C        0.09375        0.703703        0.33607930952380954        0        
C4        C        0.15625        0.703703        0.33607930952380954        0        
C4        C        0.21875        0.703703        0.33607930952380954        0        
C4        C        0.28125        0.703703        0.33607930952380954        0        
C4        C        0.34375        0.703703        0.33607930952380954        0        
C4        C        0.40625        0.703703        0.33607930952380954        0        
C4        C        0.46875        0.703703        0.33607930952380954        0        
C4        C        0.53125        0.703703        0.33607930952380954        0        
C4        C        0.59375        0.703703        0.33607930952380954        0        
C4        C        0.65625        0.703703        0.33607930952380954        0        
C4        C        0.71875        0.703703        0.33607930952380954        0        
C4        C        0.78125        0.703703        0.33607930952380954        0        
C4        C        0.84375        0.703703        0.33607930952380954        0        
C4        C        0.9062500000000001        0.703703        0.33607930952380954        0        
C4        C        0.9687500000000001        0.703703        0.33607930952380954        0        
C_FG        C        0.0        0.796297        0.33607930952380954        0.2        
C1        C        0.0625        0.796297        0.33607930952380954        0        
C1        C        0.125        0.796297        0.33607930952380954        0        
C1        C        0.1875        0.796297        0.33607930952380954        0        
C_FG        C        0.25        0.796297        0.33607930952380954        0.2        
C1        C        0.3125        0.796297        0.33607930952380954        0        
C1        C        0.375        0.796297        0.33607930952380954        0        
C1        C        0.4375        0.796297        0.33607930952380954        0        
C1        C        0.5        0.796297        0.33607930952380954        0        
C1        C        0.5625        0.796297        0.33607930952380954        0        
C1        C        0.625        0.796297        0.33607930952380954        0        
C1        C        0.6875        0.796297        0.33607930952380954        0        
C_FG        C        0.75        0.796297        0.33607930952380954        0.2        
C1        C        0.8125        0.796297        0.33607930952380954        0        
C1        C        0.875        0.796297        0.33607930952380954        0        
C1        C        0.9375        0.796297        0.33607930952380954        0        
C2        C        0.03125        0.851852        0.33607930952380954        0        
C2        C        0.09375        0.851852        0.33607930952380954        0        
C2        C        0.15625        0.851852        0.33607930952380954        0        
C2        C        0.21875        0.851852        0.33607930952380954        0        
C2        C        0.28125        0.851852        0.33607930952380954        0        
C2        C        0.34375        0.851852        0.33607930952380954        0        
C2        C        0.40625        0.851852        0.33607930952380954        0        
C2        C        0.46875        0.851852        0.33607930952380954        0        
C2        C        0.53125        0.851852        0.33607930952380954        0        
C2        C        0.59375        0.851852        0.33607930952380954        0        
C2        C        0.65625        0.851852        0.33607930952380954        0        
C2        C        0.71875        0.851852        0.33607930952380954        0        
C2        C        0.78125        0.851852        0.33607930952380954        0        
C2        C        0.84375        0.851852        0.33607930952380954        0        
C2        C        0.9062500000000001        0.851852        0.33607930952380954        0        
C2        C        0.9687500000000001        0.851852        0.33607930952380954        0        
C3        C        0.0        0.87037        0.33607930952380954        0        
C3        C        0.0625        0.87037        0.33607930952380954        0        
C3        C        0.125        0.87037        0.33607930952380954        0        
C3        C        0.1875        0.87037        0.33607930952380954        0        
C3        C        0.25        0.87037        0.33607930952380954        0        
C3        C        0.3125        0.87037        0.33607930952380954        0        
C3        C        0.375        0.87037        0.33607930952380954        0        
C3        C        0.4375        0.87037        0.33607930952380954        0        
C3        C        0.5        0.87037        0.33607930952380954        0        
C3        C        0.5625        0.87037        0.33607930952380954        0        
C3        C        0.625        0.87037        0.33607930952380954        0        
C3        C        0.6875        0.87037        0.33607930952380954        0        
C3        C        0.75        0.87037        0.33607930952380954        0        
C3        C        0.8125        0.87037        0.33607930952380954        0        
C3        C        0.875        0.87037        0.33607930952380954        0        
C3        C        0.9375        0.87037        0.33607930952380954        0        
C4        C        0.03125        0.814814        0.33607930952380954        0        
C4        C        0.09375        0.814814        0.33607930952380954        0        
C4        C        0.15625        0.814814        0.33607930952380954        0        
C4        C        0.21875        0.814814        0.33607930952380954        0        
C4        C        0.28125        0.814814        0.33607930952380954        0        
C4        C        0.34375        0.814814        0.33607930952380954        0        
C4        C        0.40625        0.814814        0.33607930952380954        0        
C4        C        0.46875        0.814814        0.33607930952380954        0        
C4        C        0.53125        0.814814        0.33607930952380954        0        
C4        C        0.59375        0.814814        0.33607930952380954        0        
C4        C        0.65625        0.814814        0.33607930952380954        0        
C4        C        0.71875        0.814814        0.33607930952380954        0        
C4        C        0.78125        0.814814        0.33607930952380954        0        
C4        C        0.84375        0.814814        0.33607930952380954        0        
C4        C        0.9062500000000001        0.814814        0.33607930952380954        0        
C4        C        0.9687500000000001        0.814814        0.33607930952380954        0        
C_FG        C        0.0        0.907408        0.33607930952380954        0.2        
C1        C        0.0625        0.907408        0.33607930952380954        0        
C1        C        0.125        0.907408        0.33607930952380954        0        
C1        C        0.1875        0.907408        0.33607930952380954        0        
C_FG        C        0.25        0.907408        0.33607930952380954        0.2        
C1        C        0.3125        0.907408        0.33607930952380954        0        
C1        C        0.375        0.907408        0.33607930952380954        0        
C1        C        0.4375        0.907408        0.33607930952380954        0        
C1        C        0.5        0.907408        0.33607930952380954        0        
C1        C        0.5625        0.907408        0.33607930952380954        0        
C1        C        0.625        0.907408        0.33607930952380954        0        
C1        C        0.6875        0.907408        0.33607930952380954        0        
C_FG        C        0.75        0.907408        0.33607930952380954        0.2        
C1        C        0.8125        0.907408        0.33607930952380954        0        
C1        C        0.875        0.907408        0.33607930952380954        0        
C1        C        0.9375        0.907408        0.33607930952380954        0        
C2        C        0.03125        0.962963        0.33607930952380954        0        
C2        C        0.09375        0.962963        0.33607930952380954        0        
C2        C        0.15625        0.962963        0.33607930952380954        0        
C2        C        0.21875        0.962963        0.33607930952380954        0        
C2        C        0.28125        0.962963        0.33607930952380954        0        
C2        C        0.34375        0.962963        0.33607930952380954        0        
C2        C        0.40625        0.962963        0.33607930952380954        0        
C2        C        0.46875        0.962963        0.33607930952380954        0        
C2        C        0.53125        0.962963        0.33607930952380954        0        
C2        C        0.59375        0.962963        0.33607930952380954        0        
C2        C        0.65625        0.962963        0.33607930952380954        0        
C2        C        0.71875        0.962963        0.33607930952380954        0        
C2        C        0.78125        0.962963        0.33607930952380954        0        
C2        C        0.84375        0.962963        0.33607930952380954        0        
C2        C        0.9062500000000001        0.962963        0.33607930952380954        0        
C2        C        0.9687500000000001        0.962963        0.33607930952380954        0        
C3        C        0.0        0.9814809999999999        0.33607930952380954        0        
C3        C        0.0625        0.9814809999999999        0.33607930952380954        0        
C3        C        0.125        0.9814809999999999        0.33607930952380954        0        
C3        C        0.1875        0.9814809999999999        0.33607930952380954        0        
C3        C        0.25        0.9814809999999999        0.33607930952380954        0        
C3        C        0.3125        0.9814809999999999        0.33607930952380954        0        
C3        C        0.375        0.9814809999999999        0.33607930952380954        0        
C3        C        0.4375        0.9814809999999999        0.33607930952380954        0        
C3        C        0.5        0.9814809999999999        0.33607930952380954        0        
C3        C        0.5625        0.9814809999999999        0.33607930952380954        0        
C3        C        0.625        0.9814809999999999        0.33607930952380954        0        
C3        C        0.6875        0.9814809999999999        0.33607930952380954        0        
C3        C        0.75        0.9814809999999999        0.33607930952380954        0        
C3        C        0.8125        0.9814809999999999        0.33607930952380954        0        
C3        C        0.875        0.9814809999999999        0.33607930952380954        0        
C3        C        0.9375        0.9814809999999999        0.33607930952380954        0        
C4        C        0.03125        0.925925        0.33607930952380954        0        
C4        C        0.09375        0.925925        0.33607930952380954        0        
C4        C        0.15625        0.925925        0.33607930952380954        0        
C4        C        0.21875        0.925925        0.33607930952380954        0        
C4        C        0.28125        0.925925        0.33607930952380954        0        
C4        C        0.34375        0.925925        0.33607930952380954        0        
C4        C        0.40625        0.925925        0.33607930952380954        0        
C4        C        0.46875        0.925925        0.33607930952380954        0        
C4        C        0.53125        0.925925        0.33607930952380954        0        
C4        C        0.59375        0.925925        0.33607930952380954        0        
C4        C        0.65625        0.925925        0.33607930952380954        0        
C4        C        0.71875        0.925925        0.33607930952380954        0        
C4        C        0.78125        0.925925        0.33607930952380954        0        
C4        C        0.84375        0.925925        0.33607930952380954        0        
C4        C        0.9062500000000001        0.925925        0.33607930952380954        0        
C4        C        0.9687500000000001        0.925925        0.33607930952380954        0        
O_OH        O        0.0        0.018519        0.013341230158730157        -0.64        
O_OH        O        0.0        0.12963        0.013341230158730157        -0.64        
O_OH        O        0.0        0.24074099999999998        0.013341230158730157        -0.64        
O_OH        O        0.0        0.351852        0.013341230158730157        -0.64        
O_OH        O        0.0        0.46296300000000007        0.013341230158730157        -0.64        
O_OH        O        0.0        0.574075        0.013341230158730157        -0.64        
O_OH        O        0.25        0.018519        0.013341230158730157        -0.64        
O_OH        O        0.25        0.12963        0.013341230158730157        -0.64        
O_OH        O        0.25        0.24074099999999998        0.013341230158730157        -0.64        
O_OH        O        0.25        0.351852        0.013341230158730157        -0.64        
O_OH        O        0.25        0.46296300000000007        0.013341230158730157        -0.64        
O_OH        O        0.25        0.574075        0.013341230158730157        -0.64        
O_OH        O        0.75        0.018519        0.013341230158730157        -0.64        
O_OH        O        0.75        0.12963        0.013341230158730157        -0.64        
O_OH        O        0.75        0.24074099999999998        0.013341230158730157        -0.64        
O_OH        O        0.75        0.351852        0.013341230158730157        -0.64        
O_OH        O        0.75        0.46296300000000007        0.013341230158730157        -0.64        
O_OH        O        0.75        0.574075        0.013341230158730157        -0.64        
O_OH        O        0.0        0.685186        0.013341230158730157        -0.64        
O_OH        O        0.25        0.685186        0.013341230158730157        -0.64        
O_OH        O        0.75        0.685186        0.013341230158730157        -0.64        
O_OH        O        0.0        0.796297        0.013341230158730157        -0.64        
O_OH        O        0.25        0.796297        0.013341230158730157        -0.64        
O_OH        O        0.75        0.796297        0.013341230158730157        -0.64        
O_OH        O        0.0        0.907408        0.013341230158730157        -0.64        
O_OH        O        0.25        0.907408        0.013341230158730157        -0.64        
O_OH        O        0.75        0.907408        0.013341230158730157        -0.64        
O_OH        O        0.0        0.018519        0.39294440476190473        -0.64        
O_OH        O        0.0        0.12963        0.39294440476190473        -0.64        
O_OH        O        0.0        0.24074099999999998        0.39294440476190473        -0.64        
O_OH        O        0.0        0.351852        0.39294440476190473        -0.64        
O_OH        O        0.0        0.46296300000000007        0.39294440476190473        -0.64        
O_OH        O        0.0        0.574075        0.39294440476190473        -0.64        
O_OH        O        0.25        0.018519        0.39294440476190473        -0.64        
O_OH        O        0.25        0.12963        0.39294440476190473        -0.64        
O_OH        O        0.25        0.24074099999999998        0.39294440476190473        -0.64        
O_OH        O        0.25        0.351852        0.39294440476190473        -0.64        
O_OH        O        0.25        0.46296300000000007        0.39294440476190473        -0.64        
O_OH        O        0.25        0.574075        0.39294440476190473        -0.64        
O_OH        O        0.75        0.018519        0.39294440476190473        -0.64        
O_OH        O        0.75        0.12963        0.39294440476190473        -0.64        
O_OH        O        0.75        0.24074099999999998        0.39294440476190473        -0.64        
O_OH        O        0.75        0.351852        0.39294440476190473        -0.64        
O_OH        O        0.75        0.46296300000000007        0.39294440476190473        -0.64        
O_OH        O        0.75        0.574075        0.39294440476190473        -0.64        
O_OH        O        0.0        0.685186        0.39294440476190473        -0.64        
O_OH        O        0.25        0.685186        0.39294440476190473        -0.64        
O_OH        O        0.75        0.685186        0.39294440476190473        -0.64        
O_OH        O        0.0        0.796297        0.39294440476190473        -0.64        
O_OH        O        0.25        0.796297        0.39294440476190473        -0.64        
O_OH        O        0.75        0.796297        0.39294440476190473        -0.64        
O_OH        O        0.0        0.907408        0.39294440476190473        -0.64        
O_OH        O        0.25        0.907408        0.39294440476190473        -0.64        
O_OH        O        0.75        0.907408        0.39294440476190473        -0.64        
H_OH        H        -0.020117559765644295        0.029633292445462416        0.0        0.44        
H_OH        H        -0.0024429356186243356        0.15294897619775102        0.0        0.44        
H_OH        H        -0.013796287306633152        0.2594349719129267        0.0        0.44        
H_OH        H        0.01124049467121584        0.37227021306492764        0.0        0.44        
H_OH        H        0.02155677038259386        0.47072931070688756        0.0        0.44        
H_OH        H        -0.008932756416004215        0.5956612928949715        0.0        0.44        
H_OH        H        0.24331442939496054        0.040945716788510014        0.0        0.44        
H_OH        H        0.2721672357674095        0.13530313551685189        0.0        0.44        
H_OH        H        0.27262338482992293        0.2440046942555087        0.0        0.44        
H_OH        H        0.23871500688259983        0.3722443277971117        0.0        0.44        
H_OH        H        0.2723205185418986        0.4679627596375721        0.0        0.44        
H_OH        H        0.22913360043252115        0.5836239462521952        0.0        0.44        
H_OH        H        0.7473680608166969        0.04181629097957197        0.0        0.44        
H_OH        H        0.7285972037557582        0.13783285802716633        0.0        0.44        
H_OH        H        0.732492095669458        0.2558078832187876        0.0        0.44        
H_OH        H        0.7323514992935928        0.36674500533160387        0.0        0.44        
H_OH        H        0.7716169446765199        0.4705509881025431        0.0        0.44        
H_OH        H        0.7501011132308226        0.5975282210340809        0.0        0.44        
H_OH        H        -0.00760366207786026        0.7073023172774039        0.0        0.44        
H_OH        H        0.2327311255364431        0.7005408638858988        0.0        0.44        
H_OH        H        0.7368016992081117        0.7043295973048418        0.0        0.44        
H_OH        H        -0.02086488603898019        0.8058494311788591        0.0        0.44        
H_OH        H        0.22715437301003322        0.7963387300123845        0.0        0.44        
H_OH        H        0.7728359916850839        0.7969793702425998        0.0        0.44        
H_OH        H        -0.010151758423280907        0.9284187038407914        0.0        0.44        
H_OH        H        0.27259212050098725        0.9108924726875077        0.0        0.44        
H_OH        H        0.7493597130291344        0.9308522376889619        0.0        0.44        
H_OH        H        0.011603717679448688        0.03872193324220602        0.40628563492063496        0.44        
H_OH        H        -0.007516519342964438        0.15177768936564712        0.40628563492063496        0.44        
H_OH        H        -0.02224250717474729        0.24609463927571978        0.40628563492063496        0.44        
H_OH        H        -0.02058486829784565        0.36202458040254465        0.40628563492063496        0.44        
H_OH        H        0.005436206201309902        0.48574278649622044        0.40628563492063496        0.44        
H_OH        H        -0.017501511184081116        0.5891497092086942        0.40628563492063496        0.44        
H_OH        H        0.27135309735776203        0.026857247246095253        0.40628563492063496        0.44        
H_OH        H        0.22717457479972214        0.13061697679912238        0.40628563492063496        0.44        
H_OH        H        0.2281082145040979        0.24744733008706507        0.40628563492063496        0.44        
H_OH        H        0.272822554702585        0.35290661858307565        0.40628563492063496        0.44        
H_OH        H        0.23900422858504666        0.48352117482497176        0.40628563492063496        0.44        
H_OH        H        0.22795890585689146        0.5802444116250278        0.40628563492063496        0.44        
H_OH        H        0.7684142537532194        0.03240055419558567        0.40628563492063496        0.44        
H_OH        H        0.7579518385776541        0.15161689196612704        0.40628563492063496        0.44        
H_OH        H        0.745001723581519        0.2636262488757099        0.40628563492063496        0.44        
H_OH        H        0.755854583058922        0.3745222487772281        0.40628563492063496        0.44        
H_OH        H        0.7552333537913607        0.4857927987608725        0.40628563492063496        0.44        
H_OH        H        0.756322419791882        0.5966124395075423        0.40628563492063496        0.44        
H_OH        H        0.020660177362901933        0.6951963844384598        0.40628563492063496        0.44        
H_OH        H        0.2562127814661749        0.7077555506545863        0.40628563492063496        0.44        
H_OH        H        0.7358998663648514        0.7036394917393753        0.40628563492063496        0.44        
H_OH        H        0.009392297003923576        0.8176767311373719        0.40628563492063496        0.44        
H_OH        H        0.2711860029718292        0.8050729699589746        0.40628563492063496        0.44        
H_OH        H        0.7490709436340012        0.8197310493506064        0.40628563492063496        0.44        
H_OH        H        -0.014670866624653679        0.9253864723749369        0.40628563492063496        0.44        
H_OH        H        0.2725332463538446        0.9112734245239287        0.40628563492063496        0.44        
H_OH        H        0.7700820461725596        0.918589775401038        0.40628563492063496        0.44        
