data_graphite_ortho

_audit_creation_method RASPA-1.0
_audit_creation_date 2012-2-3
_audit_author_name 'David Dubbeldam'

_cell_length_a    39.36    
_cell_length_b    38.34    
_cell_length_c    15.6    
_cell_angle_alpha 90
_cell_angle_beta  90
_cell_angle_gamma 90
_cell_volume      23541.37      

_symmetry_cell_setting          triclinic
_symmetry_space_group_name_Hall 'P 1'
_symmetry_space_group_name_H-M  'P 1'
_symmetry_Int_Tables_number     1

_symmetry_equiv_pos_as_xyz 'x,y,z'

loop_
_atom_site_label
_atom_site_type_symbol
_atom_site_fract_x
_atom_site_fract_y
_atom_site_fract_z
_atom_site_charge
C_Base_COOH        C        0.0        0.018519        0.14882942307692307        0.08        
C_Base_COOH        C        0.03125        0.074075        0.14882942307692307        0.08        
C_Base_COOH        C        0.0        0.092592        0.14882942307692307        0.08        
C_Base_OH        C        0.03125        0.037037        0.14882942307692307        0.2        
C_Base_OH        C        0.0        0.12963        0.14882942307692307        0.2        
C_Base_COOH        C        0.03125        0.185185        0.14882942307692307        0.08        
C_Base_OH        C        0.0        0.203703        0.14882942307692307        0.2        
C_Base_COOH        C        0.03125        0.148148        0.14882942307692307        0.08        
C_Base_OH        C        0.0        0.24074099999999998        0.14882942307692307        0.2        
C_Base_OH        C        0.03125        0.296297        0.14882942307692307        0.2        
C_Base_COOH        C        0.0        0.314815        0.14882942307692307        0.08        
C_Base_OH        C        0.03125        0.259259        0.14882942307692307        0.2        
C_Base_OH        C        0.0        0.351852        0.14882942307692307        0.2        
C_Base_COOH        C        0.03125        0.407408        0.14882942307692307        0.08        
C_Base_COOH        C        0.0        0.42592500000000005        0.14882942307692307        0.08        
C_Base_OH        C        0.03125        0.37037        0.14882942307692307        0.2        
C_Base_COOH        C        0.0        0.46296300000000007        0.14882942307692307        0.08        
C_Base_COOH        C        0.03125        0.518519        0.14882942307692307        0.08        
C_Base_COOH        C        0.0        0.537037        0.14882942307692307        0.08        
C_Base_OH        C        0.03125        0.481481        0.14882942307692307        0.2        
C_Base_OH        C        0.0        0.574075        0.14882942307692307        0.2        
C_Base_COOH        C        0.03125        0.62963        0.14882942307692307        0.08        
C_Base_OH        C        0.0        0.648148        0.14882942307692307        0.2        
C_Base_OH        C        0.03125        0.592592        0.14882942307692307        0.2        
C_Base_COOH        C        0.0625        0.018519        0.14882942307692307        0.08        
C_Base_COOH        C        0.09375        0.074075        0.14882942307692307        0.08        
C_Base_COOH        C        0.0625        0.092592        0.14882942307692307        0.08        
C_Base_OH        C        0.09375        0.037037        0.14882942307692307        0.2        
C_Base_OH        C        0.0625        0.12963        0.14882942307692307        0.2        
C_Base_COOH        C        0.09375        0.185185        0.14882942307692307        0.08        
C_Base_OH        C        0.0625        0.203703        0.14882942307692307        0.2        
C_Base_COOH        C        0.09375        0.148148        0.14882942307692307        0.08        
C_Base_OH        C        0.0625        0.24074099999999998        0.14882942307692307        0.2        
C_Base_OH        C        0.09375        0.296297        0.14882942307692307        0.2        
C_Base_COOH        C        0.0625        0.314815        0.14882942307692307        0.08        
C_Base_OH        C        0.09375        0.259259        0.14882942307692307        0.2        
C_Base_OH        C        0.0625        0.351852        0.14882942307692307        0.2        
C_Base_COOH        C        0.09375        0.407408        0.14882942307692307        0.08        
C_Base_COOH        C        0.0625        0.42592500000000005        0.14882942307692307        0.08        
C_Base_OH        C        0.09375        0.37037        0.14882942307692307        0.2        
C_Base_COOH        C        0.0625        0.46296300000000007        0.14882942307692307        0.08        
C_Base_COOH        C        0.09375        0.518519        0.14882942307692307        0.08        
C_Base_COOH        C        0.0625        0.537037        0.14882942307692307        0.08        
C_Base_OH        C        0.09375        0.481481        0.14882942307692307        0.2        
C_Base_OH        C        0.0625        0.574075        0.14882942307692307        0.2        
C_Base_COOH        C        0.09375        0.62963        0.14882942307692307        0.08        
C_Base_OH        C        0.0625        0.648148        0.14882942307692307        0.2        
C_Base_OH        C        0.09375        0.592592        0.14882942307692307        0.2        
C1        C        0.125        0.018519        0.14882942307692307        0        
C2        C        0.15625        0.074075        0.14882942307692307        0        
C3        C        0.125        0.092592        0.14882942307692307        0        
C4        C        0.15625        0.037037        0.14882942307692307        0        
C1        C        0.125        0.12963        0.14882942307692307        0        
C2        C        0.15625        0.185185        0.14882942307692307        0        
C3        C        0.125        0.203703        0.14882942307692307        0        
C4        C        0.15625        0.148148        0.14882942307692307        0        
C1        C        0.125        0.24074099999999998        0.14882942307692307        0        
C2        C        0.15625        0.296297        0.14882942307692307        0        
C3        C        0.125        0.314815        0.14882942307692307        0        
C4        C        0.15625        0.259259        0.14882942307692307        0        
C1        C        0.125        0.351852        0.14882942307692307        0        
C2        C        0.15625        0.407408        0.14882942307692307        0        
C3        C        0.125        0.42592500000000005        0.14882942307692307        0        
C4        C        0.15625        0.37037        0.14882942307692307        0        
C1        C        0.125        0.46296300000000007        0.14882942307692307        0        
C2        C        0.15625        0.518519        0.14882942307692307        0        
C3        C        0.125        0.537037        0.14882942307692307        0        
C4        C        0.15625        0.481481        0.14882942307692307        0        
C1        C        0.125        0.574075        0.14882942307692307        0        
C2        C        0.15625        0.62963        0.14882942307692307        0        
C3        C        0.125        0.648148        0.14882942307692307        0        
C4        C        0.15625        0.592592        0.14882942307692307        0        
C1        C        0.1875        0.018519        0.14882942307692307        0        
C2        C        0.21875        0.074075        0.14882942307692307        0        
C3        C        0.1875        0.092592        0.14882942307692307        0        
C4        C        0.21875        0.037037        0.14882942307692307        0        
C1        C        0.1875        0.12963        0.14882942307692307        0        
C2        C        0.21875        0.185185        0.14882942307692307        0        
C3        C        0.1875        0.203703        0.14882942307692307        0        
C4        C        0.21875        0.148148        0.14882942307692307        0        
C1        C        0.1875        0.24074099999999998        0.14882942307692307        0        
C2        C        0.21875        0.296297        0.14882942307692307        0        
C3        C        0.1875        0.314815        0.14882942307692307        0        
C4        C        0.21875        0.259259        0.14882942307692307        0        
C1        C        0.1875        0.351852        0.14882942307692307        0        
C2        C        0.21875        0.407408        0.14882942307692307        0        
C3        C        0.1875        0.42592500000000005        0.14882942307692307        0        
C4        C        0.21875        0.37037        0.14882942307692307        0        
C1        C        0.1875        0.46296300000000007        0.14882942307692307        0        
C2        C        0.21875        0.518519        0.14882942307692307        0        
C3        C        0.1875        0.537037        0.14882942307692307        0        
C4        C        0.21875        0.481481        0.14882942307692307        0        
C1        C        0.1875        0.574075        0.14882942307692307        0        
C2        C        0.21875        0.62963        0.14882942307692307        0        
C3        C        0.1875        0.648148        0.14882942307692307        0        
C4        C        0.21875        0.592592        0.14882942307692307        0        
C1        C        0.25        0.018519        0.14882942307692307        0        
C2        C        0.28125        0.074075        0.14882942307692307        0        
C3        C        0.25        0.092592        0.14882942307692307        0        
C4        C        0.28125        0.037037        0.14882942307692307        0        
C1        C        0.25        0.12963        0.14882942307692307        0        
C2        C        0.28125        0.185185        0.14882942307692307        0        
C3        C        0.25        0.203703        0.14882942307692307        0        
C4        C        0.28125        0.148148        0.14882942307692307        0        
C1        C        0.25        0.24074099999999998        0.14882942307692307        0        
C2        C        0.28125        0.296297        0.14882942307692307        0        
C3        C        0.25        0.314815        0.14882942307692307        0        
C4        C        0.28125        0.259259        0.14882942307692307        0        
C1        C        0.25        0.351852        0.14882942307692307        0        
C2        C        0.28125        0.407408        0.14882942307692307        0        
C3        C        0.25        0.42592500000000005        0.14882942307692307        0        
C4        C        0.28125        0.37037        0.14882942307692307        0        
C1        C        0.25        0.46296300000000007        0.14882942307692307        0        
C2        C        0.28125        0.518519        0.14882942307692307        0        
C3        C        0.25        0.537037        0.14882942307692307        0        
C4        C        0.28125        0.481481        0.14882942307692307        0        
C1        C        0.25        0.574075        0.14882942307692307        0        
C2        C        0.28125        0.62963        0.14882942307692307        0        
C3        C        0.25        0.648148        0.14882942307692307        0        
C4        C        0.28125        0.592592        0.14882942307692307        0        
C1        C        0.3125        0.018519        0.14882942307692307        0        
C2        C        0.34375        0.074075        0.14882942307692307        0        
C3        C        0.3125        0.092592        0.14882942307692307        0        
C4        C        0.34375        0.037037        0.14882942307692307        0        
C1        C        0.3125        0.12963        0.14882942307692307        0        
C2        C        0.34375        0.185185        0.14882942307692307        0        
C3        C        0.3125        0.203703        0.14882942307692307        0        
C4        C        0.34375        0.148148        0.14882942307692307        0        
C1        C        0.3125        0.24074099999999998        0.14882942307692307        0        
C2        C        0.34375        0.296297        0.14882942307692307        0        
C3        C        0.3125        0.314815        0.14882942307692307        0        
C4        C        0.34375        0.259259        0.14882942307692307        0        
C1        C        0.3125        0.351852        0.14882942307692307        0        
C2        C        0.34375        0.407408        0.14882942307692307        0        
C3        C        0.3125        0.42592500000000005        0.14882942307692307        0        
C4        C        0.34375        0.37037        0.14882942307692307        0        
C1        C        0.3125        0.46296300000000007        0.14882942307692307        0        
C2        C        0.34375        0.518519        0.14882942307692307        0        
C3        C        0.3125        0.537037        0.14882942307692307        0        
C4        C        0.34375        0.481481        0.14882942307692307        0        
C1        C        0.3125        0.574075        0.14882942307692307        0        
C2        C        0.34375        0.62963        0.14882942307692307        0        
C3        C        0.3125        0.648148        0.14882942307692307        0        
C4        C        0.34375        0.592592        0.14882942307692307        0        
C1        C        0.375        0.018519        0.14882942307692307        0        
C2        C        0.40625        0.074075        0.14882942307692307        0        
C3        C        0.375        0.092592        0.14882942307692307        0        
C4        C        0.40625        0.037037        0.14882942307692307        0        
C1        C        0.375        0.12963        0.14882942307692307        0        
C2        C        0.40625        0.185185        0.14882942307692307        0        
C3        C        0.375        0.203703        0.14882942307692307        0        
C4        C        0.40625        0.148148        0.14882942307692307        0        
C1        C        0.375        0.24074099999999998        0.14882942307692307        0        
C2        C        0.40625        0.296297        0.14882942307692307        0        
C3        C        0.375        0.314815        0.14882942307692307        0        
C4        C        0.40625        0.259259        0.14882942307692307        0        
C1        C        0.375        0.351852        0.14882942307692307        0        
C2        C        0.40625        0.407408        0.14882942307692307        0        
C3        C        0.375        0.42592500000000005        0.14882942307692307        0        
C4        C        0.40625        0.37037        0.14882942307692307        0        
C1        C        0.375        0.46296300000000007        0.14882942307692307        0        
C2        C        0.40625        0.518519        0.14882942307692307        0        
C3        C        0.375        0.537037        0.14882942307692307        0        
C4        C        0.40625        0.481481        0.14882942307692307        0        
C1        C        0.375        0.574075        0.14882942307692307        0        
C2        C        0.40625        0.62963        0.14882942307692307        0        
C3        C        0.375        0.648148        0.14882942307692307        0        
C4        C        0.40625        0.592592        0.14882942307692307        0        
C1        C        0.4375        0.018519        0.14882942307692307        0        
C2        C        0.46875        0.074075        0.14882942307692307        0        
C3        C        0.4375        0.092592        0.14882942307692307        0        
C4        C        0.46875        0.037037        0.14882942307692307        0        
C1        C        0.4375        0.12963        0.14882942307692307        0        
C2        C        0.46875        0.185185        0.14882942307692307        0        
C3        C        0.4375        0.203703        0.14882942307692307        0        
C4        C        0.46875        0.148148        0.14882942307692307        0        
C1        C        0.4375        0.24074099999999998        0.14882942307692307        0        
C2        C        0.46875        0.296297        0.14882942307692307        0        
C3        C        0.4375        0.314815        0.14882942307692307        0        
C4        C        0.46875        0.259259        0.14882942307692307        0        
C1        C        0.4375        0.351852        0.14882942307692307        0        
C2        C        0.46875        0.407408        0.14882942307692307        0        
C3        C        0.4375        0.42592500000000005        0.14882942307692307        0        
C4        C        0.46875        0.37037        0.14882942307692307        0        
C1        C        0.4375        0.46296300000000007        0.14882942307692307        0        
C2        C        0.46875        0.518519        0.14882942307692307        0        
C3        C        0.4375        0.537037        0.14882942307692307        0        
C4        C        0.46875        0.481481        0.14882942307692307        0        
C1        C        0.4375        0.574075        0.14882942307692307        0        
C2        C        0.46875        0.62963        0.14882942307692307        0        
C3        C        0.4375        0.648148        0.14882942307692307        0        
C4        C        0.46875        0.592592        0.14882942307692307        0        
C1        C        0.5        0.018519        0.14882942307692307        0        
C2        C        0.53125        0.074075        0.14882942307692307        0        
C3        C        0.5        0.092592        0.14882942307692307        0        
C4        C        0.53125        0.037037        0.14882942307692307        0        
C1        C        0.5        0.12963        0.14882942307692307        0        
C2        C        0.53125        0.185185        0.14882942307692307        0        
C3        C        0.5        0.203703        0.14882942307692307        0        
C4        C        0.53125        0.148148        0.14882942307692307        0        
C1        C        0.5        0.24074099999999998        0.14882942307692307        0        
C2        C        0.53125        0.296297        0.14882942307692307        0        
C3        C        0.5        0.314815        0.14882942307692307        0        
C4        C        0.53125        0.259259        0.14882942307692307        0        
C1        C        0.5        0.351852        0.14882942307692307        0        
C2        C        0.53125        0.407408        0.14882942307692307        0        
C3        C        0.5        0.42592500000000005        0.14882942307692307        0        
C4        C        0.53125        0.37037        0.14882942307692307        0        
C1        C        0.5        0.46296300000000007        0.14882942307692307        0        
C2        C        0.53125        0.518519        0.14882942307692307        0        
C3        C        0.5        0.537037        0.14882942307692307        0        
C4        C        0.53125        0.481481        0.14882942307692307        0        
C1        C        0.5        0.574075        0.14882942307692307        0        
C2        C        0.53125        0.62963        0.14882942307692307        0        
C3        C        0.5        0.648148        0.14882942307692307        0        
C4        C        0.53125        0.592592        0.14882942307692307        0        
C1        C        0.5625        0.018519        0.14882942307692307        0        
C2        C        0.59375        0.074075        0.14882942307692307        0        
C3        C        0.5625        0.092592        0.14882942307692307        0        
C4        C        0.59375        0.037037        0.14882942307692307        0        
C1        C        0.5625        0.12963        0.14882942307692307        0        
C2        C        0.59375        0.185185        0.14882942307692307        0        
C3        C        0.5625        0.203703        0.14882942307692307        0        
C4        C        0.59375        0.148148        0.14882942307692307        0        
C1        C        0.5625        0.24074099999999998        0.14882942307692307        0        
C2        C        0.59375        0.296297        0.14882942307692307        0        
C3        C        0.5625        0.314815        0.14882942307692307        0        
C4        C        0.59375        0.259259        0.14882942307692307        0        
C1        C        0.5625        0.351852        0.14882942307692307        0        
C2        C        0.59375        0.407408        0.14882942307692307        0        
C3        C        0.5625        0.42592500000000005        0.14882942307692307        0        
C4        C        0.59375        0.37037        0.14882942307692307        0        
C1        C        0.5625        0.46296300000000007        0.14882942307692307        0        
C2        C        0.59375        0.518519        0.14882942307692307        0        
C3        C        0.5625        0.537037        0.14882942307692307        0        
C4        C        0.59375        0.481481        0.14882942307692307        0        
C1        C        0.5625        0.574075        0.14882942307692307        0        
C2        C        0.59375        0.62963        0.14882942307692307        0        
C3        C        0.5625        0.648148        0.14882942307692307        0        
C4        C        0.59375        0.592592        0.14882942307692307        0        
C1        C        0.625        0.018519        0.14882942307692307        0        
C2        C        0.65625        0.074075        0.14882942307692307        0        
C3        C        0.625        0.092592        0.14882942307692307        0        
C4        C        0.65625        0.037037        0.14882942307692307        0        
C1        C        0.625        0.12963        0.14882942307692307        0        
C2        C        0.65625        0.185185        0.14882942307692307        0        
C3        C        0.625        0.203703        0.14882942307692307        0        
C4        C        0.65625        0.148148        0.14882942307692307        0        
C1        C        0.625        0.24074099999999998        0.14882942307692307        0        
C2        C        0.65625        0.296297        0.14882942307692307        0        
C3        C        0.625        0.314815        0.14882942307692307        0        
C4        C        0.65625        0.259259        0.14882942307692307        0        
C1        C        0.625        0.351852        0.14882942307692307        0        
C2        C        0.65625        0.407408        0.14882942307692307        0        
C3        C        0.625        0.42592500000000005        0.14882942307692307        0        
C4        C        0.65625        0.37037        0.14882942307692307        0        
C1        C        0.625        0.46296300000000007        0.14882942307692307        0        
C2        C        0.65625        0.518519        0.14882942307692307        0        
C3        C        0.625        0.537037        0.14882942307692307        0        
C4        C        0.65625        0.481481        0.14882942307692307        0        
C1        C        0.625        0.574075        0.14882942307692307        0        
C2        C        0.65625        0.62963        0.14882942307692307        0        
C3        C        0.625        0.648148        0.14882942307692307        0        
C4        C        0.65625        0.592592        0.14882942307692307        0        
C1        C        0.6875        0.018519        0.14882942307692307        0        
C2        C        0.71875        0.074075        0.14882942307692307        0        
C3        C        0.6875        0.092592        0.14882942307692307        0        
C4        C        0.71875        0.037037        0.14882942307692307        0        
C1        C        0.6875        0.12963        0.14882942307692307        0        
C2        C        0.71875        0.185185        0.14882942307692307        0        
C3        C        0.6875        0.203703        0.14882942307692307        0        
C4        C        0.71875        0.148148        0.14882942307692307        0        
C1        C        0.6875        0.24074099999999998        0.14882942307692307        0        
C2        C        0.71875        0.296297        0.14882942307692307        0        
C3        C        0.6875        0.314815        0.14882942307692307        0        
C4        C        0.71875        0.259259        0.14882942307692307        0        
C1        C        0.6875        0.351852        0.14882942307692307        0        
C2        C        0.71875        0.407408        0.14882942307692307        0        
C3        C        0.6875        0.42592500000000005        0.14882942307692307        0        
C4        C        0.71875        0.37037        0.14882942307692307        0        
C1        C        0.6875        0.46296300000000007        0.14882942307692307        0        
C2        C        0.71875        0.518519        0.14882942307692307        0        
C3        C        0.6875        0.537037        0.14882942307692307        0        
C4        C        0.71875        0.481481        0.14882942307692307        0        
C1        C        0.6875        0.574075        0.14882942307692307        0        
C2        C        0.71875        0.62963        0.14882942307692307        0        
C3        C        0.6875        0.648148        0.14882942307692307        0        
C4        C        0.71875        0.592592        0.14882942307692307        0        
C1        C        0.75        0.018519        0.14882942307692307        0        
C2        C        0.78125        0.074075        0.14882942307692307        0        
C3        C        0.75        0.092592        0.14882942307692307        0        
C4        C        0.78125        0.037037        0.14882942307692307        0        
C1        C        0.75        0.12963        0.14882942307692307        0        
C2        C        0.78125        0.185185        0.14882942307692307        0        
C3        C        0.75        0.203703        0.14882942307692307        0        
C4        C        0.78125        0.148148        0.14882942307692307        0        
C1        C        0.75        0.24074099999999998        0.14882942307692307        0        
C2        C        0.78125        0.296297        0.14882942307692307        0        
C3        C        0.75        0.314815        0.14882942307692307        0        
C4        C        0.78125        0.259259        0.14882942307692307        0        
C1        C        0.75        0.351852        0.14882942307692307        0        
C2        C        0.78125        0.407408        0.14882942307692307        0        
C3        C        0.75        0.42592500000000005        0.14882942307692307        0        
C4        C        0.78125        0.37037        0.14882942307692307        0        
C1        C        0.75        0.46296300000000007        0.14882942307692307        0        
C2        C        0.78125        0.518519        0.14882942307692307        0        
C3        C        0.75        0.537037        0.14882942307692307        0        
C4        C        0.78125        0.481481        0.14882942307692307        0        
C1        C        0.75        0.574075        0.14882942307692307        0        
C2        C        0.78125        0.62963        0.14882942307692307        0        
C3        C        0.75        0.648148        0.14882942307692307        0        
C4        C        0.78125        0.592592        0.14882942307692307        0        
C1        C        0.8125        0.018519        0.14882942307692307        0        
C2        C        0.84375        0.074075        0.14882942307692307        0        
C3        C        0.8125        0.092592        0.14882942307692307        0        
C4        C        0.84375        0.037037        0.14882942307692307        0        
C1        C        0.8125        0.12963        0.14882942307692307        0        
C2        C        0.84375        0.185185        0.14882942307692307        0        
C3        C        0.8125        0.203703        0.14882942307692307        0        
C4        C        0.84375        0.148148        0.14882942307692307        0        
C1        C        0.8125        0.24074099999999998        0.14882942307692307        0        
C2        C        0.84375        0.296297        0.14882942307692307        0        
C3        C        0.8125        0.314815        0.14882942307692307        0        
C4        C        0.84375        0.259259        0.14882942307692307        0        
C1        C        0.8125        0.351852        0.14882942307692307        0        
C2        C        0.84375        0.407408        0.14882942307692307        0        
C3        C        0.8125        0.42592500000000005        0.14882942307692307        0        
C4        C        0.84375        0.37037        0.14882942307692307        0        
C1        C        0.8125        0.46296300000000007        0.14882942307692307        0        
C2        C        0.84375        0.518519        0.14882942307692307        0        
C3        C        0.8125        0.537037        0.14882942307692307        0        
C4        C        0.84375        0.481481        0.14882942307692307        0        
C1        C        0.8125        0.574075        0.14882942307692307        0        
C2        C        0.84375        0.62963        0.14882942307692307        0        
C3        C        0.8125        0.648148        0.14882942307692307        0        
C4        C        0.84375        0.592592        0.14882942307692307        0        
C1        C        0.875        0.018519        0.14882942307692307        0        
C2        C        0.9062500000000001        0.074075        0.14882942307692307        0        
C3        C        0.875        0.092592        0.14882942307692307        0        
C4        C        0.9062500000000001        0.037037        0.14882942307692307        0        
C1        C        0.875        0.12963        0.14882942307692307        0        
C2        C        0.9062500000000001        0.185185        0.14882942307692307        0        
C3        C        0.875        0.203703        0.14882942307692307        0        
C4        C        0.9062500000000001        0.148148        0.14882942307692307        0        
C1        C        0.875        0.24074099999999998        0.14882942307692307        0        
C2        C        0.9062500000000001        0.296297        0.14882942307692307        0        
C3        C        0.875        0.314815        0.14882942307692307        0        
C4        C        0.9062500000000001        0.259259        0.14882942307692307        0        
C1        C        0.875        0.351852        0.14882942307692307        0        
C2        C        0.9062500000000001        0.407408        0.14882942307692307        0        
C3        C        0.875        0.42592500000000005        0.14882942307692307        0        
C4        C        0.9062500000000001        0.37037        0.14882942307692307        0        
C1        C        0.875        0.46296300000000007        0.14882942307692307        0        
C2        C        0.9062500000000001        0.518519        0.14882942307692307        0        
C3        C        0.875        0.537037        0.14882942307692307        0        
C4        C        0.9062500000000001        0.481481        0.14882942307692307        0        
C1        C        0.875        0.574075        0.14882942307692307        0        
C2        C        0.9062500000000001        0.62963        0.14882942307692307        0        
C3        C        0.875        0.648148        0.14882942307692307        0        
C4        C        0.9062500000000001        0.592592        0.14882942307692307        0        
C1        C        0.9375        0.018519        0.14882942307692307        0        
C2        C        0.9687500000000001        0.074075        0.14882942307692307        0        
C3        C        0.9375        0.092592        0.14882942307692307        0        
C4        C        0.9687500000000001        0.037037        0.14882942307692307        0        
C1        C        0.9375        0.12963        0.14882942307692307        0        
C2        C        0.9687500000000001        0.185185        0.14882942307692307        0        
C3        C        0.9375        0.203703        0.14882942307692307        0        
C4        C        0.9687500000000001        0.148148        0.14882942307692307        0        
C1        C        0.9375        0.24074099999999998        0.14882942307692307        0        
C2        C        0.9687500000000001        0.296297        0.14882942307692307        0        
C3        C        0.9375        0.314815        0.14882942307692307        0        
C4        C        0.9687500000000001        0.259259        0.14882942307692307        0        
C1        C        0.9375        0.351852        0.14882942307692307        0        
C2        C        0.9687500000000001        0.407408        0.14882942307692307        0        
C3        C        0.9375        0.42592500000000005        0.14882942307692307        0        
C4        C        0.9687500000000001        0.37037        0.14882942307692307        0        
C1        C        0.9375        0.46296300000000007        0.14882942307692307        0        
C2        C        0.9687500000000001        0.518519        0.14882942307692307        0        
C3        C        0.9375        0.537037        0.14882942307692307        0        
C4        C        0.9687500000000001        0.481481        0.14882942307692307        0        
C1        C        0.9375        0.574075        0.14882942307692307        0        
C2        C        0.9687500000000001        0.62963        0.14882942307692307        0        
C3        C        0.9375        0.648148        0.14882942307692307        0        
C4        C        0.9687500000000001        0.592592        0.14882942307692307        0        
C1        C        0.0        0.685186        0.14882942307692307        0        
C1        C        0.0625        0.685186        0.14882942307692307        0        
C1        C        0.125        0.685186        0.14882942307692307        0        
C1        C        0.1875        0.685186        0.14882942307692307        0        
C1        C        0.25        0.685186        0.14882942307692307        0        
C1        C        0.3125        0.685186        0.14882942307692307        0        
C1        C        0.375        0.685186        0.14882942307692307        0        
C1        C        0.4375        0.685186        0.14882942307692307        0        
C1        C        0.5        0.685186        0.14882942307692307        0        
C1        C        0.5625        0.685186        0.14882942307692307        0        
C1        C        0.625        0.685186        0.14882942307692307        0        
C1        C        0.6875        0.685186        0.14882942307692307        0        
C1        C        0.75        0.685186        0.14882942307692307        0        
C1        C        0.8125        0.685186        0.14882942307692307        0        
C1        C        0.875        0.685186        0.14882942307692307        0        
C1        C        0.9375        0.685186        0.14882942307692307        0        
C2        C        0.03125        0.740741        0.14882942307692307        0        
C2        C        0.09375        0.740741        0.14882942307692307        0        
C2        C        0.15625        0.740741        0.14882942307692307        0        
C2        C        0.21875        0.740741        0.14882942307692307        0        
C2        C        0.28125        0.740741        0.14882942307692307        0        
C2        C        0.34375        0.740741        0.14882942307692307        0        
C2        C        0.40625        0.740741        0.14882942307692307        0        
C2        C        0.46875        0.740741        0.14882942307692307        0        
C2        C        0.53125        0.740741        0.14882942307692307        0        
C2        C        0.59375        0.740741        0.14882942307692307        0        
C2        C        0.65625        0.740741        0.14882942307692307        0        
C2        C        0.71875        0.740741        0.14882942307692307        0        
C2        C        0.78125        0.740741        0.14882942307692307        0        
C2        C        0.84375        0.740741        0.14882942307692307        0        
C2        C        0.9062500000000001        0.740741        0.14882942307692307        0        
C2        C        0.9687500000000001        0.740741        0.14882942307692307        0        
C3        C        0.0        0.759259        0.14882942307692307        0        
C3        C        0.0625        0.759259        0.14882942307692307        0        
C3        C        0.125        0.759259        0.14882942307692307        0        
C3        C        0.1875        0.759259        0.14882942307692307        0        
C3        C        0.25        0.759259        0.14882942307692307        0        
C3        C        0.3125        0.759259        0.14882942307692307        0        
C3        C        0.375        0.759259        0.14882942307692307        0        
C3        C        0.4375        0.759259        0.14882942307692307        0        
C3        C        0.5        0.759259        0.14882942307692307        0        
C3        C        0.5625        0.759259        0.14882942307692307        0        
C3        C        0.625        0.759259        0.14882942307692307        0        
C3        C        0.6875        0.759259        0.14882942307692307        0        
C3        C        0.75        0.759259        0.14882942307692307        0        
C3        C        0.8125        0.759259        0.14882942307692307        0        
C3        C        0.875        0.759259        0.14882942307692307        0        
C3        C        0.9375        0.759259        0.14882942307692307        0        
C4        C        0.03125        0.703703        0.14882942307692307        0        
C4        C        0.09375        0.703703        0.14882942307692307        0        
C4        C        0.15625        0.703703        0.14882942307692307        0        
C4        C        0.21875        0.703703        0.14882942307692307        0        
C4        C        0.28125        0.703703        0.14882942307692307        0        
C4        C        0.34375        0.703703        0.14882942307692307        0        
C4        C        0.40625        0.703703        0.14882942307692307        0        
C4        C        0.46875        0.703703        0.14882942307692307        0        
C4        C        0.53125        0.703703        0.14882942307692307        0        
C4        C        0.59375        0.703703        0.14882942307692307        0        
C4        C        0.65625        0.703703        0.14882942307692307        0        
C4        C        0.71875        0.703703        0.14882942307692307        0        
C4        C        0.78125        0.703703        0.14882942307692307        0        
C4        C        0.84375        0.703703        0.14882942307692307        0        
C4        C        0.9062500000000001        0.703703        0.14882942307692307        0        
C4        C        0.9687500000000001        0.703703        0.14882942307692307        0        
C1        C        0.0        0.796297        0.14882942307692307        0        
C1        C        0.0625        0.796297        0.14882942307692307        0        
C1        C        0.125        0.796297        0.14882942307692307        0        
C1        C        0.1875        0.796297        0.14882942307692307        0        
C1        C        0.25        0.796297        0.14882942307692307        0        
C1        C        0.3125        0.796297        0.14882942307692307        0        
C1        C        0.375        0.796297        0.14882942307692307        0        
C1        C        0.4375        0.796297        0.14882942307692307        0        
C1        C        0.5        0.796297        0.14882942307692307        0        
C1        C        0.5625        0.796297        0.14882942307692307        0        
C1        C        0.625        0.796297        0.14882942307692307        0        
C1        C        0.6875        0.796297        0.14882942307692307        0        
C1        C        0.75        0.796297        0.14882942307692307        0        
C1        C        0.8125        0.796297        0.14882942307692307        0        
C1        C        0.875        0.796297        0.14882942307692307        0        
C1        C        0.9375        0.796297        0.14882942307692307        0        
C2        C        0.03125        0.851852        0.14882942307692307        0        
C2        C        0.09375        0.851852        0.14882942307692307        0        
C2        C        0.15625        0.851852        0.14882942307692307        0        
C2        C        0.21875        0.851852        0.14882942307692307        0        
C2        C        0.28125        0.851852        0.14882942307692307        0        
C2        C        0.34375        0.851852        0.14882942307692307        0        
C2        C        0.40625        0.851852        0.14882942307692307        0        
C2        C        0.46875        0.851852        0.14882942307692307        0        
C2        C        0.53125        0.851852        0.14882942307692307        0        
C2        C        0.59375        0.851852        0.14882942307692307        0        
C2        C        0.65625        0.851852        0.14882942307692307        0        
C2        C        0.71875        0.851852        0.14882942307692307        0        
C2        C        0.78125        0.851852        0.14882942307692307        0        
C2        C        0.84375        0.851852        0.14882942307692307        0        
C2        C        0.9062500000000001        0.851852        0.14882942307692307        0        
C2        C        0.9687500000000001        0.851852        0.14882942307692307        0        
C3        C        0.0        0.87037        0.14882942307692307        0        
C3        C        0.0625        0.87037        0.14882942307692307        0        
C3        C        0.125        0.87037        0.14882942307692307        0        
C3        C        0.1875        0.87037        0.14882942307692307        0        
C3        C        0.25        0.87037        0.14882942307692307        0        
C3        C        0.3125        0.87037        0.14882942307692307        0        
C3        C        0.375        0.87037        0.14882942307692307        0        
C3        C        0.4375        0.87037        0.14882942307692307        0        
C3        C        0.5        0.87037        0.14882942307692307        0        
C3        C        0.5625        0.87037        0.14882942307692307        0        
C3        C        0.625        0.87037        0.14882942307692307        0        
C3        C        0.6875        0.87037        0.14882942307692307        0        
C3        C        0.75        0.87037        0.14882942307692307        0        
C3        C        0.8125        0.87037        0.14882942307692307        0        
C3        C        0.875        0.87037        0.14882942307692307        0        
C3        C        0.9375        0.87037        0.14882942307692307        0        
C4        C        0.03125        0.814814        0.14882942307692307        0        
C4        C        0.09375        0.814814        0.14882942307692307        0        
C4        C        0.15625        0.814814        0.14882942307692307        0        
C4        C        0.21875        0.814814        0.14882942307692307        0        
C4        C        0.28125        0.814814        0.14882942307692307        0        
C4        C        0.34375        0.814814        0.14882942307692307        0        
C4        C        0.40625        0.814814        0.14882942307692307        0        
C4        C        0.46875        0.814814        0.14882942307692307        0        
C4        C        0.53125        0.814814        0.14882942307692307        0        
C4        C        0.59375        0.814814        0.14882942307692307        0        
C4        C        0.65625        0.814814        0.14882942307692307        0        
C4        C        0.71875        0.814814        0.14882942307692307        0        
C4        C        0.78125        0.814814        0.14882942307692307        0        
C4        C        0.84375        0.814814        0.14882942307692307        0        
C4        C        0.9062500000000001        0.814814        0.14882942307692307        0        
C4        C        0.9687500000000001        0.814814        0.14882942307692307        0        
C1        C        0.0        0.907408        0.14882942307692307        0        
C1        C        0.0625        0.907408        0.14882942307692307        0        
C1        C        0.125        0.907408        0.14882942307692307        0        
C1        C        0.1875        0.907408        0.14882942307692307        0        
C1        C        0.25        0.907408        0.14882942307692307        0        
C1        C        0.3125        0.907408        0.14882942307692307        0        
C1        C        0.375        0.907408        0.14882942307692307        0        
C1        C        0.4375        0.907408        0.14882942307692307        0        
C1        C        0.5        0.907408        0.14882942307692307        0        
C1        C        0.5625        0.907408        0.14882942307692307        0        
C1        C        0.625        0.907408        0.14882942307692307        0        
C1        C        0.6875        0.907408        0.14882942307692307        0        
C1        C        0.75        0.907408        0.14882942307692307        0        
C1        C        0.8125        0.907408        0.14882942307692307        0        
C1        C        0.875        0.907408        0.14882942307692307        0        
C1        C        0.9375        0.907408        0.14882942307692307        0        
C2        C        0.03125        0.962963        0.14882942307692307        0        
C2        C        0.09375        0.962963        0.14882942307692307        0        
C2        C        0.15625        0.962963        0.14882942307692307        0        
C2        C        0.21875        0.962963        0.14882942307692307        0        
C2        C        0.28125        0.962963        0.14882942307692307        0        
C2        C        0.34375        0.962963        0.14882942307692307        0        
C2        C        0.40625        0.962963        0.14882942307692307        0        
C2        C        0.46875        0.962963        0.14882942307692307        0        
C2        C        0.53125        0.962963        0.14882942307692307        0        
C2        C        0.59375        0.962963        0.14882942307692307        0        
C2        C        0.65625        0.962963        0.14882942307692307        0        
C2        C        0.71875        0.962963        0.14882942307692307        0        
C2        C        0.78125        0.962963        0.14882942307692307        0        
C2        C        0.84375        0.962963        0.14882942307692307        0        
C2        C        0.9062500000000001        0.962963        0.14882942307692307        0        
C2        C        0.9687500000000001        0.962963        0.14882942307692307        0        
C3        C        0.0        0.9814809999999999        0.14882942307692307        0        
C3        C        0.0625        0.9814809999999999        0.14882942307692307        0        
C3        C        0.125        0.9814809999999999        0.14882942307692307        0        
C3        C        0.1875        0.9814809999999999        0.14882942307692307        0        
C3        C        0.25        0.9814809999999999        0.14882942307692307        0        
C3        C        0.3125        0.9814809999999999        0.14882942307692307        0        
C3        C        0.375        0.9814809999999999        0.14882942307692307        0        
C3        C        0.4375        0.9814809999999999        0.14882942307692307        0        
C3        C        0.5        0.9814809999999999        0.14882942307692307        0        
C3        C        0.5625        0.9814809999999999        0.14882942307692307        0        
C3        C        0.625        0.9814809999999999        0.14882942307692307        0        
C3        C        0.6875        0.9814809999999999        0.14882942307692307        0        
C3        C        0.75        0.9814809999999999        0.14882942307692307        0        
C3        C        0.8125        0.9814809999999999        0.14882942307692307        0        
C3        C        0.875        0.9814809999999999        0.14882942307692307        0        
C3        C        0.9375        0.9814809999999999        0.14882942307692307        0        
C4        C        0.03125        0.925925        0.14882942307692307        0        
C4        C        0.09375        0.925925        0.14882942307692307        0        
C4        C        0.15625        0.925925        0.14882942307692307        0        
C4        C        0.21875        0.925925        0.14882942307692307        0        
C4        C        0.28125        0.925925        0.14882942307692307        0        
C4        C        0.34375        0.925925        0.14882942307692307        0        
C4        C        0.40625        0.925925        0.14882942307692307        0        
C4        C        0.46875        0.925925        0.14882942307692307        0        
C4        C        0.53125        0.925925        0.14882942307692307        0        
C4        C        0.59375        0.925925        0.14882942307692307        0        
C4        C        0.65625        0.925925        0.14882942307692307        0        
C4        C        0.71875        0.925925        0.14882942307692307        0        
C4        C        0.78125        0.925925        0.14882942307692307        0        
C4        C        0.84375        0.925925        0.14882942307692307        0        
C4        C        0.9062500000000001        0.925925        0.14882942307692307        0        
C4        C        0.9687500000000001        0.925925        0.14882942307692307        0        
C1        C        0.0        0.018519        0.3635734230769231        0        
C2        C        0.03125        0.074075        0.3635734230769231        0        
C3        C        0.0        0.092592        0.3635734230769231        0        
C4        C        0.03125        0.037037        0.3635734230769231        0        
C1        C        0.0        0.12963        0.3635734230769231        0        
C2        C        0.03125        0.185185        0.3635734230769231        0        
C3        C        0.0        0.203703        0.3635734230769231        0        
C4        C        0.03125        0.148148        0.3635734230769231        0        
C1        C        0.0        0.24074099999999998        0.3635734230769231        0        
C2        C        0.03125        0.296297        0.3635734230769231        0        
C3        C        0.0        0.314815        0.3635734230769231        0        
C4        C        0.03125        0.259259        0.3635734230769231        0        
C1        C        0.0        0.351852        0.3635734230769231        0        
C2        C        0.03125        0.407408        0.3635734230769231        0        
C3        C        0.0        0.42592500000000005        0.3635734230769231        0        
C4        C        0.03125        0.37037        0.3635734230769231        0        
C1        C        0.0        0.46296300000000007        0.3635734230769231        0        
C2        C        0.03125        0.518519        0.3635734230769231        0        
C3        C        0.0        0.537037        0.3635734230769231        0        
C4        C        0.03125        0.481481        0.3635734230769231        0        
C1        C        0.0        0.574075        0.3635734230769231        0        
C2        C        0.03125        0.62963        0.3635734230769231        0        
C3        C        0.0        0.648148        0.3635734230769231        0        
C4        C        0.03125        0.592592        0.3635734230769231        0        
C1        C        0.0625        0.018519        0.3635734230769231        0        
C2        C        0.09375        0.074075        0.3635734230769231        0        
C3        C        0.0625        0.092592        0.3635734230769231        0        
C4        C        0.09375        0.037037        0.3635734230769231        0        
C1        C        0.0625        0.12963        0.3635734230769231        0        
C2        C        0.09375        0.185185        0.3635734230769231        0        
C3        C        0.0625        0.203703        0.3635734230769231        0        
C4        C        0.09375        0.148148        0.3635734230769231        0        
C1        C        0.0625        0.24074099999999998        0.3635734230769231        0        
C2        C        0.09375        0.296297        0.3635734230769231        0        
C3        C        0.0625        0.314815        0.3635734230769231        0        
C4        C        0.09375        0.259259        0.3635734230769231        0        
C1        C        0.0625        0.351852        0.3635734230769231        0        
C2        C        0.09375        0.407408        0.3635734230769231        0        
C3        C        0.0625        0.42592500000000005        0.3635734230769231        0        
C4        C        0.09375        0.37037        0.3635734230769231        0        
C1        C        0.0625        0.46296300000000007        0.3635734230769231        0        
C2        C        0.09375        0.518519        0.3635734230769231        0        
C3        C        0.0625        0.537037        0.3635734230769231        0        
C4        C        0.09375        0.481481        0.3635734230769231        0        
C1        C        0.0625        0.574075        0.3635734230769231        0        
C2        C        0.09375        0.62963        0.3635734230769231        0        
C3        C        0.0625        0.648148        0.3635734230769231        0        
C4        C        0.09375        0.592592        0.3635734230769231        0        
C1        C        0.125        0.018519        0.3635734230769231        0        
C2        C        0.15625        0.074075        0.3635734230769231        0        
C3        C        0.125        0.092592        0.3635734230769231        0        
C4        C        0.15625        0.037037        0.3635734230769231        0        
C1        C        0.125        0.12963        0.3635734230769231        0        
C2        C        0.15625        0.185185        0.3635734230769231        0        
C3        C        0.125        0.203703        0.3635734230769231        0        
C4        C        0.15625        0.148148        0.3635734230769231        0        
C1        C        0.125        0.24074099999999998        0.3635734230769231        0        
C2        C        0.15625        0.296297        0.3635734230769231        0        
C3        C        0.125        0.314815        0.3635734230769231        0        
C4        C        0.15625        0.259259        0.3635734230769231        0        
C1        C        0.125        0.351852        0.3635734230769231        0        
C2        C        0.15625        0.407408        0.3635734230769231        0        
C3        C        0.125        0.42592500000000005        0.3635734230769231        0        
C4        C        0.15625        0.37037        0.3635734230769231        0        
C1        C        0.125        0.46296300000000007        0.3635734230769231        0        
C2        C        0.15625        0.518519        0.3635734230769231        0        
C3        C        0.125        0.537037        0.3635734230769231        0        
C4        C        0.15625        0.481481        0.3635734230769231        0        
C1        C        0.125        0.574075        0.3635734230769231        0        
C2        C        0.15625        0.62963        0.3635734230769231        0        
C3        C        0.125        0.648148        0.3635734230769231        0        
C4        C        0.15625        0.592592        0.3635734230769231        0        
C1        C        0.1875        0.018519        0.3635734230769231        0        
C2        C        0.21875        0.074075        0.3635734230769231        0        
C3        C        0.1875        0.092592        0.3635734230769231        0        
C4        C        0.21875        0.037037        0.3635734230769231        0        
C1        C        0.1875        0.12963        0.3635734230769231        0        
C2        C        0.21875        0.185185        0.3635734230769231        0        
C3        C        0.1875        0.203703        0.3635734230769231        0        
C4        C        0.21875        0.148148        0.3635734230769231        0        
C1        C        0.1875        0.24074099999999998        0.3635734230769231        0        
C2        C        0.21875        0.296297        0.3635734230769231        0        
C3        C        0.1875        0.314815        0.3635734230769231        0        
C4        C        0.21875        0.259259        0.3635734230769231        0        
C1        C        0.1875        0.351852        0.3635734230769231        0        
C2        C        0.21875        0.407408        0.3635734230769231        0        
C3        C        0.1875        0.42592500000000005        0.3635734230769231        0        
C4        C        0.21875        0.37037        0.3635734230769231        0        
C1        C        0.1875        0.46296300000000007        0.3635734230769231        0        
C2        C        0.21875        0.518519        0.3635734230769231        0        
C3        C        0.1875        0.537037        0.3635734230769231        0        
C4        C        0.21875        0.481481        0.3635734230769231        0        
C1        C        0.1875        0.574075        0.3635734230769231        0        
C2        C        0.21875        0.62963        0.3635734230769231        0        
C3        C        0.1875        0.648148        0.3635734230769231        0        
C4        C        0.21875        0.592592        0.3635734230769231        0        
C1        C        0.25        0.018519        0.3635734230769231        0        
C2        C        0.28125        0.074075        0.3635734230769231        0        
C3        C        0.25        0.092592        0.3635734230769231        0        
C4        C        0.28125        0.037037        0.3635734230769231        0        
C1        C        0.25        0.12963        0.3635734230769231        0        
C2        C        0.28125        0.185185        0.3635734230769231        0        
C3        C        0.25        0.203703        0.3635734230769231        0        
C4        C        0.28125        0.148148        0.3635734230769231        0        
C1        C        0.25        0.24074099999999998        0.3635734230769231        0        
C2        C        0.28125        0.296297        0.3635734230769231        0        
C3        C        0.25        0.314815        0.3635734230769231        0        
C4        C        0.28125        0.259259        0.3635734230769231        0        
C1        C        0.25        0.351852        0.3635734230769231        0        
C2        C        0.28125        0.407408        0.3635734230769231        0        
C3        C        0.25        0.42592500000000005        0.3635734230769231        0        
C4        C        0.28125        0.37037        0.3635734230769231        0        
C1        C        0.25        0.46296300000000007        0.3635734230769231        0        
C2        C        0.28125        0.518519        0.3635734230769231        0        
C3        C        0.25        0.537037        0.3635734230769231        0        
C4        C        0.28125        0.481481        0.3635734230769231        0        
C1        C        0.25        0.574075        0.3635734230769231        0        
C2        C        0.28125        0.62963        0.3635734230769231        0        
C3        C        0.25        0.648148        0.3635734230769231        0        
C4        C        0.28125        0.592592        0.3635734230769231        0        
C1        C        0.3125        0.018519        0.3635734230769231        0        
C2        C        0.34375        0.074075        0.3635734230769231        0        
C3        C        0.3125        0.092592        0.3635734230769231        0        
C4        C        0.34375        0.037037        0.3635734230769231        0        
C1        C        0.3125        0.12963        0.3635734230769231        0        
C2        C        0.34375        0.185185        0.3635734230769231        0        
C3        C        0.3125        0.203703        0.3635734230769231        0        
C4        C        0.34375        0.148148        0.3635734230769231        0        
C1        C        0.3125        0.24074099999999998        0.3635734230769231        0        
C2        C        0.34375        0.296297        0.3635734230769231        0        
C3        C        0.3125        0.314815        0.3635734230769231        0        
C4        C        0.34375        0.259259        0.3635734230769231        0        
C1        C        0.3125        0.351852        0.3635734230769231        0        
C2        C        0.34375        0.407408        0.3635734230769231        0        
C3        C        0.3125        0.42592500000000005        0.3635734230769231        0        
C4        C        0.34375        0.37037        0.3635734230769231        0        
C1        C        0.3125        0.46296300000000007        0.3635734230769231        0        
C2        C        0.34375        0.518519        0.3635734230769231        0        
C3        C        0.3125        0.537037        0.3635734230769231        0        
C4        C        0.34375        0.481481        0.3635734230769231        0        
C1        C        0.3125        0.574075        0.3635734230769231        0        
C2        C        0.34375        0.62963        0.3635734230769231        0        
C3        C        0.3125        0.648148        0.3635734230769231        0        
C4        C        0.34375        0.592592        0.3635734230769231        0        
C1        C        0.375        0.018519        0.3635734230769231        0        
C2        C        0.40625        0.074075        0.3635734230769231        0        
C3        C        0.375        0.092592        0.3635734230769231        0        
C4        C        0.40625        0.037037        0.3635734230769231        0        
C1        C        0.375        0.12963        0.3635734230769231        0        
C2        C        0.40625        0.185185        0.3635734230769231        0        
C3        C        0.375        0.203703        0.3635734230769231        0        
C4        C        0.40625        0.148148        0.3635734230769231        0        
C1        C        0.375        0.24074099999999998        0.3635734230769231        0        
C2        C        0.40625        0.296297        0.3635734230769231        0        
C3        C        0.375        0.314815        0.3635734230769231        0        
C4        C        0.40625        0.259259        0.3635734230769231        0        
C1        C        0.375        0.351852        0.3635734230769231        0        
C2        C        0.40625        0.407408        0.3635734230769231        0        
C3        C        0.375        0.42592500000000005        0.3635734230769231        0        
C4        C        0.40625        0.37037        0.3635734230769231        0        
C1        C        0.375        0.46296300000000007        0.3635734230769231        0        
C2        C        0.40625        0.518519        0.3635734230769231        0        
C3        C        0.375        0.537037        0.3635734230769231        0        
C4        C        0.40625        0.481481        0.3635734230769231        0        
C1        C        0.375        0.574075        0.3635734230769231        0        
C2        C        0.40625        0.62963        0.3635734230769231        0        
C3        C        0.375        0.648148        0.3635734230769231        0        
C4        C        0.40625        0.592592        0.3635734230769231        0        
C1        C        0.4375        0.018519        0.3635734230769231        0        
C2        C        0.46875        0.074075        0.3635734230769231        0        
C3        C        0.4375        0.092592        0.3635734230769231        0        
C4        C        0.46875        0.037037        0.3635734230769231        0        
C1        C        0.4375        0.12963        0.3635734230769231        0        
C2        C        0.46875        0.185185        0.3635734230769231        0        
C3        C        0.4375        0.203703        0.3635734230769231        0        
C4        C        0.46875        0.148148        0.3635734230769231        0        
C1        C        0.4375        0.24074099999999998        0.3635734230769231        0        
C2        C        0.46875        0.296297        0.3635734230769231        0        
C3        C        0.4375        0.314815        0.3635734230769231        0        
C4        C        0.46875        0.259259        0.3635734230769231        0        
C1        C        0.4375        0.351852        0.3635734230769231        0        
C2        C        0.46875        0.407408        0.3635734230769231        0        
C3        C        0.4375        0.42592500000000005        0.3635734230769231        0        
C4        C        0.46875        0.37037        0.3635734230769231        0        
C1        C        0.4375        0.46296300000000007        0.3635734230769231        0        
C2        C        0.46875        0.518519        0.3635734230769231        0        
C3        C        0.4375        0.537037        0.3635734230769231        0        
C4        C        0.46875        0.481481        0.3635734230769231        0        
C1        C        0.4375        0.574075        0.3635734230769231        0        
C2        C        0.46875        0.62963        0.3635734230769231        0        
C3        C        0.4375        0.648148        0.3635734230769231        0        
C4        C        0.46875        0.592592        0.3635734230769231        0        
C1        C        0.5        0.018519        0.3635734230769231        0        
C2        C        0.53125        0.074075        0.3635734230769231        0        
C3        C        0.5        0.092592        0.3635734230769231        0        
C4        C        0.53125        0.037037        0.3635734230769231        0        
C1        C        0.5        0.12963        0.3635734230769231        0        
C2        C        0.53125        0.185185        0.3635734230769231        0        
C3        C        0.5        0.203703        0.3635734230769231        0        
C4        C        0.53125        0.148148        0.3635734230769231        0        
C1        C        0.5        0.24074099999999998        0.3635734230769231        0        
C2        C        0.53125        0.296297        0.3635734230769231        0        
C3        C        0.5        0.314815        0.3635734230769231        0        
C4        C        0.53125        0.259259        0.3635734230769231        0        
C1        C        0.5        0.351852        0.3635734230769231        0        
C2        C        0.53125        0.407408        0.3635734230769231        0        
C3        C        0.5        0.42592500000000005        0.3635734230769231        0        
C4        C        0.53125        0.37037        0.3635734230769231        0        
C1        C        0.5        0.46296300000000007        0.3635734230769231        0        
C2        C        0.53125        0.518519        0.3635734230769231        0        
C3        C        0.5        0.537037        0.3635734230769231        0        
C4        C        0.53125        0.481481        0.3635734230769231        0        
C1        C        0.5        0.574075        0.3635734230769231        0        
C2        C        0.53125        0.62963        0.3635734230769231        0        
C3        C        0.5        0.648148        0.3635734230769231        0        
C4        C        0.53125        0.592592        0.3635734230769231        0        
C1        C        0.5625        0.018519        0.3635734230769231        0        
C2        C        0.59375        0.074075        0.3635734230769231        0        
C3        C        0.5625        0.092592        0.3635734230769231        0        
C4        C        0.59375        0.037037        0.3635734230769231        0        
C1        C        0.5625        0.12963        0.3635734230769231        0        
C2        C        0.59375        0.185185        0.3635734230769231        0        
C3        C        0.5625        0.203703        0.3635734230769231        0        
C4        C        0.59375        0.148148        0.3635734230769231        0        
C1        C        0.5625        0.24074099999999998        0.3635734230769231        0        
C2        C        0.59375        0.296297        0.3635734230769231        0        
C3        C        0.5625        0.314815        0.3635734230769231        0        
C4        C        0.59375        0.259259        0.3635734230769231        0        
C1        C        0.5625        0.351852        0.3635734230769231        0        
C2        C        0.59375        0.407408        0.3635734230769231        0        
C3        C        0.5625        0.42592500000000005        0.3635734230769231        0        
C4        C        0.59375        0.37037        0.3635734230769231        0        
C1        C        0.5625        0.46296300000000007        0.3635734230769231        0        
C2        C        0.59375        0.518519        0.3635734230769231        0        
C3        C        0.5625        0.537037        0.3635734230769231        0        
C4        C        0.59375        0.481481        0.3635734230769231        0        
C1        C        0.5625        0.574075        0.3635734230769231        0        
C2        C        0.59375        0.62963        0.3635734230769231        0        
C3        C        0.5625        0.648148        0.3635734230769231        0        
C4        C        0.59375        0.592592        0.3635734230769231        0        
C1        C        0.625        0.018519        0.3635734230769231        0        
C2        C        0.65625        0.074075        0.3635734230769231        0        
C3        C        0.625        0.092592        0.3635734230769231        0        
C4        C        0.65625        0.037037        0.3635734230769231        0        
C1        C        0.625        0.12963        0.3635734230769231        0        
C2        C        0.65625        0.185185        0.3635734230769231        0        
C3        C        0.625        0.203703        0.3635734230769231        0        
C4        C        0.65625        0.148148        0.3635734230769231        0        
C1        C        0.625        0.24074099999999998        0.3635734230769231        0        
C2        C        0.65625        0.296297        0.3635734230769231        0        
C3        C        0.625        0.314815        0.3635734230769231        0        
C4        C        0.65625        0.259259        0.3635734230769231        0        
C1        C        0.625        0.351852        0.3635734230769231        0        
C2        C        0.65625        0.407408        0.3635734230769231        0        
C3        C        0.625        0.42592500000000005        0.3635734230769231        0        
C4        C        0.65625        0.37037        0.3635734230769231        0        
C1        C        0.625        0.46296300000000007        0.3635734230769231        0        
C2        C        0.65625        0.518519        0.3635734230769231        0        
C3        C        0.625        0.537037        0.3635734230769231        0        
C4        C        0.65625        0.481481        0.3635734230769231        0        
C1        C        0.625        0.574075        0.3635734230769231        0        
C2        C        0.65625        0.62963        0.3635734230769231        0        
C3        C        0.625        0.648148        0.3635734230769231        0        
C4        C        0.65625        0.592592        0.3635734230769231        0        
C1        C        0.6875        0.018519        0.3635734230769231        0        
C2        C        0.71875        0.074075        0.3635734230769231        0        
C3        C        0.6875        0.092592        0.3635734230769231        0        
C4        C        0.71875        0.037037        0.3635734230769231        0        
C1        C        0.6875        0.12963        0.3635734230769231        0        
C2        C        0.71875        0.185185        0.3635734230769231        0        
C3        C        0.6875        0.203703        0.3635734230769231        0        
C4        C        0.71875        0.148148        0.3635734230769231        0        
C1        C        0.6875        0.24074099999999998        0.3635734230769231        0        
C2        C        0.71875        0.296297        0.3635734230769231        0        
C3        C        0.6875        0.314815        0.3635734230769231        0        
C4        C        0.71875        0.259259        0.3635734230769231        0        
C1        C        0.6875        0.351852        0.3635734230769231        0        
C2        C        0.71875        0.407408        0.3635734230769231        0        
C3        C        0.6875        0.42592500000000005        0.3635734230769231        0        
C4        C        0.71875        0.37037        0.3635734230769231        0        
C1        C        0.6875        0.46296300000000007        0.3635734230769231        0        
C2        C        0.71875        0.518519        0.3635734230769231        0        
C3        C        0.6875        0.537037        0.3635734230769231        0        
C4        C        0.71875        0.481481        0.3635734230769231        0        
C1        C        0.6875        0.574075        0.3635734230769231        0        
C2        C        0.71875        0.62963        0.3635734230769231        0        
C3        C        0.6875        0.648148        0.3635734230769231        0        
C4        C        0.71875        0.592592        0.3635734230769231        0        
C1        C        0.75        0.018519        0.3635734230769231        0        
C2        C        0.78125        0.074075        0.3635734230769231        0        
C3        C        0.75        0.092592        0.3635734230769231        0        
C4        C        0.78125        0.037037        0.3635734230769231        0        
C1        C        0.75        0.12963        0.3635734230769231        0        
C2        C        0.78125        0.185185        0.3635734230769231        0        
C3        C        0.75        0.203703        0.3635734230769231        0        
C4        C        0.78125        0.148148        0.3635734230769231        0        
C1        C        0.75        0.24074099999999998        0.3635734230769231        0        
C2        C        0.78125        0.296297        0.3635734230769231        0        
C3        C        0.75        0.314815        0.3635734230769231        0        
C4        C        0.78125        0.259259        0.3635734230769231        0        
C1        C        0.75        0.351852        0.3635734230769231        0        
C2        C        0.78125        0.407408        0.3635734230769231        0        
C3        C        0.75        0.42592500000000005        0.3635734230769231        0        
C4        C        0.78125        0.37037        0.3635734230769231        0        
C1        C        0.75        0.46296300000000007        0.3635734230769231        0        
C2        C        0.78125        0.518519        0.3635734230769231        0        
C3        C        0.75        0.537037        0.3635734230769231        0        
C4        C        0.78125        0.481481        0.3635734230769231        0        
C1        C        0.75        0.574075        0.3635734230769231        0        
C2        C        0.78125        0.62963        0.3635734230769231        0        
C3        C        0.75        0.648148        0.3635734230769231        0        
C4        C        0.78125        0.592592        0.3635734230769231        0        
C1        C        0.8125        0.018519        0.3635734230769231        0        
C2        C        0.84375        0.074075        0.3635734230769231        0        
C3        C        0.8125        0.092592        0.3635734230769231        0        
C4        C        0.84375        0.037037        0.3635734230769231        0        
C1        C        0.8125        0.12963        0.3635734230769231        0        
C2        C        0.84375        0.185185        0.3635734230769231        0        
C3        C        0.8125        0.203703        0.3635734230769231        0        
C4        C        0.84375        0.148148        0.3635734230769231        0        
C1        C        0.8125        0.24074099999999998        0.3635734230769231        0        
C2        C        0.84375        0.296297        0.3635734230769231        0        
C3        C        0.8125        0.314815        0.3635734230769231        0        
C4        C        0.84375        0.259259        0.3635734230769231        0        
C1        C        0.8125        0.351852        0.3635734230769231        0        
C2        C        0.84375        0.407408        0.3635734230769231        0        
C3        C        0.8125        0.42592500000000005        0.3635734230769231        0        
C4        C        0.84375        0.37037        0.3635734230769231        0        
C1        C        0.8125        0.46296300000000007        0.3635734230769231        0        
C2        C        0.84375        0.518519        0.3635734230769231        0        
C3        C        0.8125        0.537037        0.3635734230769231        0        
C4        C        0.84375        0.481481        0.3635734230769231        0        
C1        C        0.8125        0.574075        0.3635734230769231        0        
C2        C        0.84375        0.62963        0.3635734230769231        0        
C3        C        0.8125        0.648148        0.3635734230769231        0        
C4        C        0.84375        0.592592        0.3635734230769231        0        
C1        C        0.875        0.018519        0.3635734230769231        0        
C2        C        0.9062500000000001        0.074075        0.3635734230769231        0        
C3        C        0.875        0.092592        0.3635734230769231        0        
C4        C        0.9062500000000001        0.037037        0.3635734230769231        0        
C1        C        0.875        0.12963        0.3635734230769231        0        
C2        C        0.9062500000000001        0.185185        0.3635734230769231        0        
C3        C        0.875        0.203703        0.3635734230769231        0        
C4        C        0.9062500000000001        0.148148        0.3635734230769231        0        
C1        C        0.875        0.24074099999999998        0.3635734230769231        0        
C2        C        0.9062500000000001        0.296297        0.3635734230769231        0        
C3        C        0.875        0.314815        0.3635734230769231        0        
C4        C        0.9062500000000001        0.259259        0.3635734230769231        0        
C1        C        0.875        0.351852        0.3635734230769231        0        
C2        C        0.9062500000000001        0.407408        0.3635734230769231        0        
C3        C        0.875        0.42592500000000005        0.3635734230769231        0        
C4        C        0.9062500000000001        0.37037        0.3635734230769231        0        
C1        C        0.875        0.46296300000000007        0.3635734230769231        0        
C2        C        0.9062500000000001        0.518519        0.3635734230769231        0        
C3        C        0.875        0.537037        0.3635734230769231        0        
C4        C        0.9062500000000001        0.481481        0.3635734230769231        0        
C1        C        0.875        0.574075        0.3635734230769231        0        
C2        C        0.9062500000000001        0.62963        0.3635734230769231        0        
C3        C        0.875        0.648148        0.3635734230769231        0        
C4        C        0.9062500000000001        0.592592        0.3635734230769231        0        
C1        C        0.9375        0.018519        0.3635734230769231        0        
C2        C        0.9687500000000001        0.074075        0.3635734230769231        0        
C3        C        0.9375        0.092592        0.3635734230769231        0        
C4        C        0.9687500000000001        0.037037        0.3635734230769231        0        
C1        C        0.9375        0.12963        0.3635734230769231        0        
C2        C        0.9687500000000001        0.185185        0.3635734230769231        0        
C3        C        0.9375        0.203703        0.3635734230769231        0        
C4        C        0.9687500000000001        0.148148        0.3635734230769231        0        
C1        C        0.9375        0.24074099999999998        0.3635734230769231        0        
C2        C        0.9687500000000001        0.296297        0.3635734230769231        0        
C3        C        0.9375        0.314815        0.3635734230769231        0        
C4        C        0.9687500000000001        0.259259        0.3635734230769231        0        
C1        C        0.9375        0.351852        0.3635734230769231        0        
C2        C        0.9687500000000001        0.407408        0.3635734230769231        0        
C3        C        0.9375        0.42592500000000005        0.3635734230769231        0        
C4        C        0.9687500000000001        0.37037        0.3635734230769231        0        
C1        C        0.9375        0.46296300000000007        0.3635734230769231        0        
C2        C        0.9687500000000001        0.518519        0.3635734230769231        0        
C3        C        0.9375        0.537037        0.3635734230769231        0        
C4        C        0.9687500000000001        0.481481        0.3635734230769231        0        
C1        C        0.9375        0.574075        0.3635734230769231        0        
C2        C        0.9687500000000001        0.62963        0.3635734230769231        0        
C3        C        0.9375        0.648148        0.3635734230769231        0        
C4        C        0.9687500000000001        0.592592        0.3635734230769231        0        
C1        C        0.0        0.685186        0.3635734230769231        0        
C1        C        0.0625        0.685186        0.3635734230769231        0        
C1        C        0.125        0.685186        0.3635734230769231        0        
C1        C        0.1875        0.685186        0.3635734230769231        0        
C1        C        0.25        0.685186        0.3635734230769231        0        
C1        C        0.3125        0.685186        0.3635734230769231        0        
C1        C        0.375        0.685186        0.3635734230769231        0        
C1        C        0.4375        0.685186        0.3635734230769231        0        
C1        C        0.5        0.685186        0.3635734230769231        0        
C1        C        0.5625        0.685186        0.3635734230769231        0        
C1        C        0.625        0.685186        0.3635734230769231        0        
C1        C        0.6875        0.685186        0.3635734230769231        0        
C1        C        0.75        0.685186        0.3635734230769231        0        
C1        C        0.8125        0.685186        0.3635734230769231        0        
C1        C        0.875        0.685186        0.3635734230769231        0        
C1        C        0.9375        0.685186        0.3635734230769231        0        
C2        C        0.03125        0.740741        0.3635734230769231        0        
C2        C        0.09375        0.740741        0.3635734230769231        0        
C2        C        0.15625        0.740741        0.3635734230769231        0        
C2        C        0.21875        0.740741        0.3635734230769231        0        
C2        C        0.28125        0.740741        0.3635734230769231        0        
C2        C        0.34375        0.740741        0.3635734230769231        0        
C2        C        0.40625        0.740741        0.3635734230769231        0        
C2        C        0.46875        0.740741        0.3635734230769231        0        
C2        C        0.53125        0.740741        0.3635734230769231        0        
C2        C        0.59375        0.740741        0.3635734230769231        0        
C2        C        0.65625        0.740741        0.3635734230769231        0        
C2        C        0.71875        0.740741        0.3635734230769231        0        
C2        C        0.78125        0.740741        0.3635734230769231        0        
C2        C        0.84375        0.740741        0.3635734230769231        0        
C2        C        0.9062500000000001        0.740741        0.3635734230769231        0        
C2        C        0.9687500000000001        0.740741        0.3635734230769231        0        
C3        C        0.0        0.759259        0.3635734230769231        0        
C3        C        0.0625        0.759259        0.3635734230769231        0        
C3        C        0.125        0.759259        0.3635734230769231        0        
C3        C        0.1875        0.759259        0.3635734230769231        0        
C3        C        0.25        0.759259        0.3635734230769231        0        
C3        C        0.3125        0.759259        0.3635734230769231        0        
C3        C        0.375        0.759259        0.3635734230769231        0        
C3        C        0.4375        0.759259        0.3635734230769231        0        
C3        C        0.5        0.759259        0.3635734230769231        0        
C3        C        0.5625        0.759259        0.3635734230769231        0        
C3        C        0.625        0.759259        0.3635734230769231        0        
C3        C        0.6875        0.759259        0.3635734230769231        0        
C3        C        0.75        0.759259        0.3635734230769231        0        
C3        C        0.8125        0.759259        0.3635734230769231        0        
C3        C        0.875        0.759259        0.3635734230769231        0        
C3        C        0.9375        0.759259        0.3635734230769231        0        
C4        C        0.03125        0.703703        0.3635734230769231        0        
C4        C        0.09375        0.703703        0.3635734230769231        0        
C4        C        0.15625        0.703703        0.3635734230769231        0        
C4        C        0.21875        0.703703        0.3635734230769231        0        
C4        C        0.28125        0.703703        0.3635734230769231        0        
C4        C        0.34375        0.703703        0.3635734230769231        0        
C4        C        0.40625        0.703703        0.3635734230769231        0        
C4        C        0.46875        0.703703        0.3635734230769231        0        
C4        C        0.53125        0.703703        0.3635734230769231        0        
C4        C        0.59375        0.703703        0.3635734230769231        0        
C4        C        0.65625        0.703703        0.3635734230769231        0        
C4        C        0.71875        0.703703        0.3635734230769231        0        
C4        C        0.78125        0.703703        0.3635734230769231        0        
C4        C        0.84375        0.703703        0.3635734230769231        0        
C4        C        0.9062500000000001        0.703703        0.3635734230769231        0        
C4        C        0.9687500000000001        0.703703        0.3635734230769231        0        
C1        C        0.0        0.796297        0.3635734230769231        0        
C1        C        0.0625        0.796297        0.3635734230769231        0        
C1        C        0.125        0.796297        0.3635734230769231        0        
C1        C        0.1875        0.796297        0.3635734230769231        0        
C1        C        0.25        0.796297        0.3635734230769231        0        
C1        C        0.3125        0.796297        0.3635734230769231        0        
C1        C        0.375        0.796297        0.3635734230769231        0        
C1        C        0.4375        0.796297        0.3635734230769231        0        
C1        C        0.5        0.796297        0.3635734230769231        0        
C1        C        0.5625        0.796297        0.3635734230769231        0        
C1        C        0.625        0.796297        0.3635734230769231        0        
C1        C        0.6875        0.796297        0.3635734230769231        0        
C1        C        0.75        0.796297        0.3635734230769231        0        
C1        C        0.8125        0.796297        0.3635734230769231        0        
C1        C        0.875        0.796297        0.3635734230769231        0        
C1        C        0.9375        0.796297        0.3635734230769231        0        
C2        C        0.03125        0.851852        0.3635734230769231        0        
C2        C        0.09375        0.851852        0.3635734230769231        0        
C2        C        0.15625        0.851852        0.3635734230769231        0        
C2        C        0.21875        0.851852        0.3635734230769231        0        
C2        C        0.28125        0.851852        0.3635734230769231        0        
C2        C        0.34375        0.851852        0.3635734230769231        0        
C2        C        0.40625        0.851852        0.3635734230769231        0        
C2        C        0.46875        0.851852        0.3635734230769231        0        
C2        C        0.53125        0.851852        0.3635734230769231        0        
C2        C        0.59375        0.851852        0.3635734230769231        0        
C2        C        0.65625        0.851852        0.3635734230769231        0        
C2        C        0.71875        0.851852        0.3635734230769231        0        
C2        C        0.78125        0.851852        0.3635734230769231        0        
C2        C        0.84375        0.851852        0.3635734230769231        0        
C2        C        0.9062500000000001        0.851852        0.3635734230769231        0        
C2        C        0.9687500000000001        0.851852        0.3635734230769231        0        
C3        C        0.0        0.87037        0.3635734230769231        0        
C3        C        0.0625        0.87037        0.3635734230769231        0        
C3        C        0.125        0.87037        0.3635734230769231        0        
C3        C        0.1875        0.87037        0.3635734230769231        0        
C3        C        0.25        0.87037        0.3635734230769231        0        
C3        C        0.3125        0.87037        0.3635734230769231        0        
C3        C        0.375        0.87037        0.3635734230769231        0        
C3        C        0.4375        0.87037        0.3635734230769231        0        
C3        C        0.5        0.87037        0.3635734230769231        0        
C3        C        0.5625        0.87037        0.3635734230769231        0        
C3        C        0.625        0.87037        0.3635734230769231        0        
C3        C        0.6875        0.87037        0.3635734230769231        0        
C3        C        0.75        0.87037        0.3635734230769231        0        
C3        C        0.8125        0.87037        0.3635734230769231        0        
C3        C        0.875        0.87037        0.3635734230769231        0        
C3        C        0.9375        0.87037        0.3635734230769231        0        
C4        C        0.03125        0.814814        0.3635734230769231        0        
C4        C        0.09375        0.814814        0.3635734230769231        0        
C4        C        0.15625        0.814814        0.3635734230769231        0        
C4        C        0.21875        0.814814        0.3635734230769231        0        
C4        C        0.28125        0.814814        0.3635734230769231        0        
C4        C        0.34375        0.814814        0.3635734230769231        0        
C4        C        0.40625        0.814814        0.3635734230769231        0        
C4        C        0.46875        0.814814        0.3635734230769231        0        
C4        C        0.53125        0.814814        0.3635734230769231        0        
C4        C        0.59375        0.814814        0.3635734230769231        0        
C4        C        0.65625        0.814814        0.3635734230769231        0        
C4        C        0.71875        0.814814        0.3635734230769231        0        
C4        C        0.78125        0.814814        0.3635734230769231        0        
C4        C        0.84375        0.814814        0.3635734230769231        0        
C4        C        0.9062500000000001        0.814814        0.3635734230769231        0        
C4        C        0.9687500000000001        0.814814        0.3635734230769231        0        
C1        C        0.0        0.907408        0.3635734230769231        0        
C1        C        0.0625        0.907408        0.3635734230769231        0        
C1        C        0.125        0.907408        0.3635734230769231        0        
C1        C        0.1875        0.907408        0.3635734230769231        0        
C1        C        0.25        0.907408        0.3635734230769231        0        
C1        C        0.3125        0.907408        0.3635734230769231        0        
C1        C        0.375        0.907408        0.3635734230769231        0        
C1        C        0.4375        0.907408        0.3635734230769231        0        
C1        C        0.5        0.907408        0.3635734230769231        0        
C1        C        0.5625        0.907408        0.3635734230769231        0        
C1        C        0.625        0.907408        0.3635734230769231        0        
C1        C        0.6875        0.907408        0.3635734230769231        0        
C1        C        0.75        0.907408        0.3635734230769231        0        
C1        C        0.8125        0.907408        0.3635734230769231        0        
C1        C        0.875        0.907408        0.3635734230769231        0        
C1        C        0.9375        0.907408        0.3635734230769231        0        
C2        C        0.03125        0.962963        0.3635734230769231        0        
C2        C        0.09375        0.962963        0.3635734230769231        0        
C2        C        0.15625        0.962963        0.3635734230769231        0        
C2        C        0.21875        0.962963        0.3635734230769231        0        
C2        C        0.28125        0.962963        0.3635734230769231        0        
C2        C        0.34375        0.962963        0.3635734230769231        0        
C2        C        0.40625        0.962963        0.3635734230769231        0        
C2        C        0.46875        0.962963        0.3635734230769231        0        
C2        C        0.53125        0.962963        0.3635734230769231        0        
C2        C        0.59375        0.962963        0.3635734230769231        0        
C2        C        0.65625        0.962963        0.3635734230769231        0        
C2        C        0.71875        0.962963        0.3635734230769231        0        
C2        C        0.78125        0.962963        0.3635734230769231        0        
C2        C        0.84375        0.962963        0.3635734230769231        0        
C2        C        0.9062500000000001        0.962963        0.3635734230769231        0        
C2        C        0.9687500000000001        0.962963        0.3635734230769231        0        
C3        C        0.0        0.9814809999999999        0.3635734230769231        0        
C3        C        0.0625        0.9814809999999999        0.3635734230769231        0        
C3        C        0.125        0.9814809999999999        0.3635734230769231        0        
C3        C        0.1875        0.9814809999999999        0.3635734230769231        0        
C3        C        0.25        0.9814809999999999        0.3635734230769231        0        
C3        C        0.3125        0.9814809999999999        0.3635734230769231        0        
C3        C        0.375        0.9814809999999999        0.3635734230769231        0        
C3        C        0.4375        0.9814809999999999        0.3635734230769231        0        
C3        C        0.5        0.9814809999999999        0.3635734230769231        0        
C3        C        0.5625        0.9814809999999999        0.3635734230769231        0        
C3        C        0.625        0.9814809999999999        0.3635734230769231        0        
C3        C        0.6875        0.9814809999999999        0.3635734230769231        0        
C3        C        0.75        0.9814809999999999        0.3635734230769231        0        
C3        C        0.8125        0.9814809999999999        0.3635734230769231        0        
C3        C        0.875        0.9814809999999999        0.3635734230769231        0        
C3        C        0.9375        0.9814809999999999        0.3635734230769231        0        
C4        C        0.03125        0.925925        0.3635734230769231        0        
C4        C        0.09375        0.925925        0.3635734230769231        0        
C4        C        0.15625        0.925925        0.3635734230769231        0        
C4        C        0.21875        0.925925        0.3635734230769231        0        
C4        C        0.28125        0.925925        0.3635734230769231        0        
C4        C        0.34375        0.925925        0.3635734230769231        0        
C4        C        0.40625        0.925925        0.3635734230769231        0        
C4        C        0.46875        0.925925        0.3635734230769231        0        
C4        C        0.53125        0.925925        0.3635734230769231        0        
C4        C        0.59375        0.925925        0.3635734230769231        0        
C4        C        0.65625        0.925925        0.3635734230769231        0        
C4        C        0.71875        0.925925        0.3635734230769231        0        
C4        C        0.78125        0.925925        0.3635734230769231        0        
C4        C        0.84375        0.925925        0.3635734230769231        0        
C4        C        0.9062500000000001        0.925925        0.3635734230769231        0        
C4        C        0.9687500000000001        0.925925        0.3635734230769231        0        
C1        C        0.0        0.018519        0.5783164230769231        0        
C2        C        0.03125        0.074075        0.5783164230769231        0        
C3        C        0.0        0.092592        0.5783164230769231        0        
C4        C        0.03125        0.037037        0.5783164230769231        0        
C1        C        0.0        0.12963        0.5783164230769231        0        
C2        C        0.03125        0.185185        0.5783164230769231        0        
C3        C        0.0        0.203703        0.5783164230769231        0        
C4        C        0.03125        0.148148        0.5783164230769231        0        
C1        C        0.0        0.24074099999999998        0.5783164230769231        0        
C2        C        0.03125        0.296297        0.5783164230769231        0        
C3        C        0.0        0.314815        0.5783164230769231        0        
C4        C        0.03125        0.259259        0.5783164230769231        0        
C1        C        0.0        0.351852        0.5783164230769231        0        
C2        C        0.03125        0.407408        0.5783164230769231        0        
C3        C        0.0        0.42592500000000005        0.5783164230769231        0        
C4        C        0.03125        0.37037        0.5783164230769231        0        
C1        C        0.0        0.46296300000000007        0.5783164230769231        0        
C2        C        0.03125        0.518519        0.5783164230769231        0        
C3        C        0.0        0.537037        0.5783164230769231        0        
C4        C        0.03125        0.481481        0.5783164230769231        0        
C1        C        0.0        0.574075        0.5783164230769231        0        
C2        C        0.03125        0.62963        0.5783164230769231        0        
C3        C        0.0        0.648148        0.5783164230769231        0        
C4        C        0.03125        0.592592        0.5783164230769231        0        
C1        C        0.0625        0.018519        0.5783164230769231        0        
C2        C        0.09375        0.074075        0.5783164230769231        0        
C3        C        0.0625        0.092592        0.5783164230769231        0        
C4        C        0.09375        0.037037        0.5783164230769231        0        
C1        C        0.0625        0.12963        0.5783164230769231        0        
C2        C        0.09375        0.185185        0.5783164230769231        0        
C3        C        0.0625        0.203703        0.5783164230769231        0        
C4        C        0.09375        0.148148        0.5783164230769231        0        
C1        C        0.0625        0.24074099999999998        0.5783164230769231        0        
C2        C        0.09375        0.296297        0.5783164230769231        0        
C3        C        0.0625        0.314815        0.5783164230769231        0        
C4        C        0.09375        0.259259        0.5783164230769231        0        
C1        C        0.0625        0.351852        0.5783164230769231        0        
C2        C        0.09375        0.407408        0.5783164230769231        0        
C3        C        0.0625        0.42592500000000005        0.5783164230769231        0        
C4        C        0.09375        0.37037        0.5783164230769231        0        
C1        C        0.0625        0.46296300000000007        0.5783164230769231        0        
C2        C        0.09375        0.518519        0.5783164230769231        0        
C3        C        0.0625        0.537037        0.5783164230769231        0        
C4        C        0.09375        0.481481        0.5783164230769231        0        
C1        C        0.0625        0.574075        0.5783164230769231        0        
C2        C        0.09375        0.62963        0.5783164230769231        0        
C3        C        0.0625        0.648148        0.5783164230769231        0        
C4        C        0.09375        0.592592        0.5783164230769231        0        
C1        C        0.125        0.018519        0.5783164230769231        0        
C2        C        0.15625        0.074075        0.5783164230769231        0        
C3        C        0.125        0.092592        0.5783164230769231        0        
C4        C        0.15625        0.037037        0.5783164230769231        0        
C1        C        0.125        0.12963        0.5783164230769231        0        
C2        C        0.15625        0.185185        0.5783164230769231        0        
C3        C        0.125        0.203703        0.5783164230769231        0        
C4        C        0.15625        0.148148        0.5783164230769231        0        
C1        C        0.125        0.24074099999999998        0.5783164230769231        0        
C2        C        0.15625        0.296297        0.5783164230769231        0        
C3        C        0.125        0.314815        0.5783164230769231        0        
C4        C        0.15625        0.259259        0.5783164230769231        0        
C1        C        0.125        0.351852        0.5783164230769231        0        
C2        C        0.15625        0.407408        0.5783164230769231        0        
C3        C        0.125        0.42592500000000005        0.5783164230769231        0        
C4        C        0.15625        0.37037        0.5783164230769231        0        
C1        C        0.125        0.46296300000000007        0.5783164230769231        0        
C2        C        0.15625        0.518519        0.5783164230769231        0        
C3        C        0.125        0.537037        0.5783164230769231        0        
C4        C        0.15625        0.481481        0.5783164230769231        0        
C1        C        0.125        0.574075        0.5783164230769231        0        
C2        C        0.15625        0.62963        0.5783164230769231        0        
C3        C        0.125        0.648148        0.5783164230769231        0        
C4        C        0.15625        0.592592        0.5783164230769231        0        
C1        C        0.1875        0.018519        0.5783164230769231        0        
C2        C        0.21875        0.074075        0.5783164230769231        0        
C3        C        0.1875        0.092592        0.5783164230769231        0        
C4        C        0.21875        0.037037        0.5783164230769231        0        
C1        C        0.1875        0.12963        0.5783164230769231        0        
C2        C        0.21875        0.185185        0.5783164230769231        0        
C3        C        0.1875        0.203703        0.5783164230769231        0        
C4        C        0.21875        0.148148        0.5783164230769231        0        
C1        C        0.1875        0.24074099999999998        0.5783164230769231        0        
C2        C        0.21875        0.296297        0.5783164230769231        0        
C3        C        0.1875        0.314815        0.5783164230769231        0        
C4        C        0.21875        0.259259        0.5783164230769231        0        
C1        C        0.1875        0.351852        0.5783164230769231        0        
C2        C        0.21875        0.407408        0.5783164230769231        0        
C3        C        0.1875        0.42592500000000005        0.5783164230769231        0        
C4        C        0.21875        0.37037        0.5783164230769231        0        
C1        C        0.1875        0.46296300000000007        0.5783164230769231        0        
C2        C        0.21875        0.518519        0.5783164230769231        0        
C3        C        0.1875        0.537037        0.5783164230769231        0        
C4        C        0.21875        0.481481        0.5783164230769231        0        
C1        C        0.1875        0.574075        0.5783164230769231        0        
C2        C        0.21875        0.62963        0.5783164230769231        0        
C3        C        0.1875        0.648148        0.5783164230769231        0        
C4        C        0.21875        0.592592        0.5783164230769231        0        
C1        C        0.25        0.018519        0.5783164230769231        0        
C2        C        0.28125        0.074075        0.5783164230769231        0        
C3        C        0.25        0.092592        0.5783164230769231        0        
C4        C        0.28125        0.037037        0.5783164230769231        0        
C1        C        0.25        0.12963        0.5783164230769231        0        
C2        C        0.28125        0.185185        0.5783164230769231        0        
C3        C        0.25        0.203703        0.5783164230769231        0        
C4        C        0.28125        0.148148        0.5783164230769231        0        
C1        C        0.25        0.24074099999999998        0.5783164230769231        0        
C2        C        0.28125        0.296297        0.5783164230769231        0        
C3        C        0.25        0.314815        0.5783164230769231        0        
C4        C        0.28125        0.259259        0.5783164230769231        0        
C1        C        0.25        0.351852        0.5783164230769231        0        
C2        C        0.28125        0.407408        0.5783164230769231        0        
C3        C        0.25        0.42592500000000005        0.5783164230769231        0        
C4        C        0.28125        0.37037        0.5783164230769231        0        
C1        C        0.25        0.46296300000000007        0.5783164230769231        0        
C2        C        0.28125        0.518519        0.5783164230769231        0        
C3        C        0.25        0.537037        0.5783164230769231        0        
C4        C        0.28125        0.481481        0.5783164230769231        0        
C1        C        0.25        0.574075        0.5783164230769231        0        
C2        C        0.28125        0.62963        0.5783164230769231        0        
C3        C        0.25        0.648148        0.5783164230769231        0        
C4        C        0.28125        0.592592        0.5783164230769231        0        
C1        C        0.3125        0.018519        0.5783164230769231        0        
C2        C        0.34375        0.074075        0.5783164230769231        0        
C3        C        0.3125        0.092592        0.5783164230769231        0        
C4        C        0.34375        0.037037        0.5783164230769231        0        
C1        C        0.3125        0.12963        0.5783164230769231        0        
C2        C        0.34375        0.185185        0.5783164230769231        0        
C3        C        0.3125        0.203703        0.5783164230769231        0        
C4        C        0.34375        0.148148        0.5783164230769231        0        
C1        C        0.3125        0.24074099999999998        0.5783164230769231        0        
C2        C        0.34375        0.296297        0.5783164230769231        0        
C3        C        0.3125        0.314815        0.5783164230769231        0        
C4        C        0.34375        0.259259        0.5783164230769231        0        
C1        C        0.3125        0.351852        0.5783164230769231        0        
C2        C        0.34375        0.407408        0.5783164230769231        0        
C3        C        0.3125        0.42592500000000005        0.5783164230769231        0        
C4        C        0.34375        0.37037        0.5783164230769231        0        
C1        C        0.3125        0.46296300000000007        0.5783164230769231        0        
C2        C        0.34375        0.518519        0.5783164230769231        0        
C3        C        0.3125        0.537037        0.5783164230769231        0        
C4        C        0.34375        0.481481        0.5783164230769231        0        
C1        C        0.3125        0.574075        0.5783164230769231        0        
C2        C        0.34375        0.62963        0.5783164230769231        0        
C3        C        0.3125        0.648148        0.5783164230769231        0        
C4        C        0.34375        0.592592        0.5783164230769231        0        
C1        C        0.375        0.018519        0.5783164230769231        0        
C2        C        0.40625        0.074075        0.5783164230769231        0        
C3        C        0.375        0.092592        0.5783164230769231        0        
C4        C        0.40625        0.037037        0.5783164230769231        0        
C1        C        0.375        0.12963        0.5783164230769231        0        
C2        C        0.40625        0.185185        0.5783164230769231        0        
C3        C        0.375        0.203703        0.5783164230769231        0        
C4        C        0.40625        0.148148        0.5783164230769231        0        
C1        C        0.375        0.24074099999999998        0.5783164230769231        0        
C2        C        0.40625        0.296297        0.5783164230769231        0        
C3        C        0.375        0.314815        0.5783164230769231        0        
C4        C        0.40625        0.259259        0.5783164230769231        0        
C1        C        0.375        0.351852        0.5783164230769231        0        
C2        C        0.40625        0.407408        0.5783164230769231        0        
C3        C        0.375        0.42592500000000005        0.5783164230769231        0        
C4        C        0.40625        0.37037        0.5783164230769231        0        
C1        C        0.375        0.46296300000000007        0.5783164230769231        0        
C2        C        0.40625        0.518519        0.5783164230769231        0        
C3        C        0.375        0.537037        0.5783164230769231        0        
C4        C        0.40625        0.481481        0.5783164230769231        0        
C1        C        0.375        0.574075        0.5783164230769231        0        
C2        C        0.40625        0.62963        0.5783164230769231        0        
C3        C        0.375        0.648148        0.5783164230769231        0        
C4        C        0.40625        0.592592        0.5783164230769231        0        
C1        C        0.4375        0.018519        0.5783164230769231        0        
C2        C        0.46875        0.074075        0.5783164230769231        0        
C3        C        0.4375        0.092592        0.5783164230769231        0        
C4        C        0.46875        0.037037        0.5783164230769231        0        
C1        C        0.4375        0.12963        0.5783164230769231        0        
C2        C        0.46875        0.185185        0.5783164230769231        0        
C3        C        0.4375        0.203703        0.5783164230769231        0        
C4        C        0.46875        0.148148        0.5783164230769231        0        
C1        C        0.4375        0.24074099999999998        0.5783164230769231        0        
C2        C        0.46875        0.296297        0.5783164230769231        0        
C3        C        0.4375        0.314815        0.5783164230769231        0        
C4        C        0.46875        0.259259        0.5783164230769231        0        
C1        C        0.4375        0.351852        0.5783164230769231        0        
C2        C        0.46875        0.407408        0.5783164230769231        0        
C3        C        0.4375        0.42592500000000005        0.5783164230769231        0        
C4        C        0.46875        0.37037        0.5783164230769231        0        
C1        C        0.4375        0.46296300000000007        0.5783164230769231        0        
C2        C        0.46875        0.518519        0.5783164230769231        0        
C3        C        0.4375        0.537037        0.5783164230769231        0        
C4        C        0.46875        0.481481        0.5783164230769231        0        
C1        C        0.4375        0.574075        0.5783164230769231        0        
C2        C        0.46875        0.62963        0.5783164230769231        0        
C3        C        0.4375        0.648148        0.5783164230769231        0        
C4        C        0.46875        0.592592        0.5783164230769231        0        
C1        C        0.5        0.018519        0.5783164230769231        0        
C2        C        0.53125        0.074075        0.5783164230769231        0        
C3        C        0.5        0.092592        0.5783164230769231        0        
C4        C        0.53125        0.037037        0.5783164230769231        0        
C1        C        0.5        0.12963        0.5783164230769231        0        
C2        C        0.53125        0.185185        0.5783164230769231        0        
C3        C        0.5        0.203703        0.5783164230769231        0        
C4        C        0.53125        0.148148        0.5783164230769231        0        
C1        C        0.5        0.24074099999999998        0.5783164230769231        0        
C2        C        0.53125        0.296297        0.5783164230769231        0        
C3        C        0.5        0.314815        0.5783164230769231        0        
C4        C        0.53125        0.259259        0.5783164230769231        0        
C1        C        0.5        0.351852        0.5783164230769231        0        
C2        C        0.53125        0.407408        0.5783164230769231        0        
C3        C        0.5        0.42592500000000005        0.5783164230769231        0        
C4        C        0.53125        0.37037        0.5783164230769231        0        
C1        C        0.5        0.46296300000000007        0.5783164230769231        0        
C2        C        0.53125        0.518519        0.5783164230769231        0        
C3        C        0.5        0.537037        0.5783164230769231        0        
C4        C        0.53125        0.481481        0.5783164230769231        0        
C1        C        0.5        0.574075        0.5783164230769231        0        
C2        C        0.53125        0.62963        0.5783164230769231        0        
C3        C        0.5        0.648148        0.5783164230769231        0        
C4        C        0.53125        0.592592        0.5783164230769231        0        
C1        C        0.5625        0.018519        0.5783164230769231        0        
C2        C        0.59375        0.074075        0.5783164230769231        0        
C3        C        0.5625        0.092592        0.5783164230769231        0        
C4        C        0.59375        0.037037        0.5783164230769231        0        
C1        C        0.5625        0.12963        0.5783164230769231        0        
C2        C        0.59375        0.185185        0.5783164230769231        0        
C3        C        0.5625        0.203703        0.5783164230769231        0        
C4        C        0.59375        0.148148        0.5783164230769231        0        
C1        C        0.5625        0.24074099999999998        0.5783164230769231        0        
C2        C        0.59375        0.296297        0.5783164230769231        0        
C3        C        0.5625        0.314815        0.5783164230769231        0        
C4        C        0.59375        0.259259        0.5783164230769231        0        
C1        C        0.5625        0.351852        0.5783164230769231        0        
C2        C        0.59375        0.407408        0.5783164230769231        0        
C3        C        0.5625        0.42592500000000005        0.5783164230769231        0        
C4        C        0.59375        0.37037        0.5783164230769231        0        
C1        C        0.5625        0.46296300000000007        0.5783164230769231        0        
C2        C        0.59375        0.518519        0.5783164230769231        0        
C3        C        0.5625        0.537037        0.5783164230769231        0        
C4        C        0.59375        0.481481        0.5783164230769231        0        
C1        C        0.5625        0.574075        0.5783164230769231        0        
C2        C        0.59375        0.62963        0.5783164230769231        0        
C3        C        0.5625        0.648148        0.5783164230769231        0        
C4        C        0.59375        0.592592        0.5783164230769231        0        
C1        C        0.625        0.018519        0.5783164230769231        0        
C2        C        0.65625        0.074075        0.5783164230769231        0        
C3        C        0.625        0.092592        0.5783164230769231        0        
C4        C        0.65625        0.037037        0.5783164230769231        0        
C1        C        0.625        0.12963        0.5783164230769231        0        
C2        C        0.65625        0.185185        0.5783164230769231        0        
C3        C        0.625        0.203703        0.5783164230769231        0        
C4        C        0.65625        0.148148        0.5783164230769231        0        
C1        C        0.625        0.24074099999999998        0.5783164230769231        0        
C2        C        0.65625        0.296297        0.5783164230769231        0        
C3        C        0.625        0.314815        0.5783164230769231        0        
C4        C        0.65625        0.259259        0.5783164230769231        0        
C1        C        0.625        0.351852        0.5783164230769231        0        
C2        C        0.65625        0.407408        0.5783164230769231        0        
C3        C        0.625        0.42592500000000005        0.5783164230769231        0        
C4        C        0.65625        0.37037        0.5783164230769231        0        
C1        C        0.625        0.46296300000000007        0.5783164230769231        0        
C2        C        0.65625        0.518519        0.5783164230769231        0        
C3        C        0.625        0.537037        0.5783164230769231        0        
C4        C        0.65625        0.481481        0.5783164230769231        0        
C1        C        0.625        0.574075        0.5783164230769231        0        
C2        C        0.65625        0.62963        0.5783164230769231        0        
C3        C        0.625        0.648148        0.5783164230769231        0        
C4        C        0.65625        0.592592        0.5783164230769231        0        
C1        C        0.6875        0.018519        0.5783164230769231        0        
C2        C        0.71875        0.074075        0.5783164230769231        0        
C3        C        0.6875        0.092592        0.5783164230769231        0        
C4        C        0.71875        0.037037        0.5783164230769231        0        
C1        C        0.6875        0.12963        0.5783164230769231        0        
C2        C        0.71875        0.185185        0.5783164230769231        0        
C3        C        0.6875        0.203703        0.5783164230769231        0        
C4        C        0.71875        0.148148        0.5783164230769231        0        
C1        C        0.6875        0.24074099999999998        0.5783164230769231        0        
C2        C        0.71875        0.296297        0.5783164230769231        0        
C3        C        0.6875        0.314815        0.5783164230769231        0        
C4        C        0.71875        0.259259        0.5783164230769231        0        
C1        C        0.6875        0.351852        0.5783164230769231        0        
C2        C        0.71875        0.407408        0.5783164230769231        0        
C3        C        0.6875        0.42592500000000005        0.5783164230769231        0        
C4        C        0.71875        0.37037        0.5783164230769231        0        
C1        C        0.6875        0.46296300000000007        0.5783164230769231        0        
C2        C        0.71875        0.518519        0.5783164230769231        0        
C3        C        0.6875        0.537037        0.5783164230769231        0        
C4        C        0.71875        0.481481        0.5783164230769231        0        
C1        C        0.6875        0.574075        0.5783164230769231        0        
C2        C        0.71875        0.62963        0.5783164230769231        0        
C3        C        0.6875        0.648148        0.5783164230769231        0        
C4        C        0.71875        0.592592        0.5783164230769231        0        
C1        C        0.75        0.018519        0.5783164230769231        0        
C2        C        0.78125        0.074075        0.5783164230769231        0        
C3        C        0.75        0.092592        0.5783164230769231        0        
C4        C        0.78125        0.037037        0.5783164230769231        0        
C1        C        0.75        0.12963        0.5783164230769231        0        
C2        C        0.78125        0.185185        0.5783164230769231        0        
C3        C        0.75        0.203703        0.5783164230769231        0        
C4        C        0.78125        0.148148        0.5783164230769231        0        
C1        C        0.75        0.24074099999999998        0.5783164230769231        0        
C2        C        0.78125        0.296297        0.5783164230769231        0        
C3        C        0.75        0.314815        0.5783164230769231        0        
C4        C        0.78125        0.259259        0.5783164230769231        0        
C1        C        0.75        0.351852        0.5783164230769231        0        
C2        C        0.78125        0.407408        0.5783164230769231        0        
C3        C        0.75        0.42592500000000005        0.5783164230769231        0        
C4        C        0.78125        0.37037        0.5783164230769231        0        
C1        C        0.75        0.46296300000000007        0.5783164230769231        0        
C2        C        0.78125        0.518519        0.5783164230769231        0        
C3        C        0.75        0.537037        0.5783164230769231        0        
C4        C        0.78125        0.481481        0.5783164230769231        0        
C1        C        0.75        0.574075        0.5783164230769231        0        
C2        C        0.78125        0.62963        0.5783164230769231        0        
C3        C        0.75        0.648148        0.5783164230769231        0        
C4        C        0.78125        0.592592        0.5783164230769231        0        
C1        C        0.8125        0.018519        0.5783164230769231        0        
C2        C        0.84375        0.074075        0.5783164230769231        0        
C3        C        0.8125        0.092592        0.5783164230769231        0        
C4        C        0.84375        0.037037        0.5783164230769231        0        
C1        C        0.8125        0.12963        0.5783164230769231        0        
C2        C        0.84375        0.185185        0.5783164230769231        0        
C3        C        0.8125        0.203703        0.5783164230769231        0        
C4        C        0.84375        0.148148        0.5783164230769231        0        
C1        C        0.8125        0.24074099999999998        0.5783164230769231        0        
C2        C        0.84375        0.296297        0.5783164230769231        0        
C3        C        0.8125        0.314815        0.5783164230769231        0        
C4        C        0.84375        0.259259        0.5783164230769231        0        
C1        C        0.8125        0.351852        0.5783164230769231        0        
C2        C        0.84375        0.407408        0.5783164230769231        0        
C3        C        0.8125        0.42592500000000005        0.5783164230769231        0        
C4        C        0.84375        0.37037        0.5783164230769231        0        
C1        C        0.8125        0.46296300000000007        0.5783164230769231        0        
C2        C        0.84375        0.518519        0.5783164230769231        0        
C3        C        0.8125        0.537037        0.5783164230769231        0        
C4        C        0.84375        0.481481        0.5783164230769231        0        
C1        C        0.8125        0.574075        0.5783164230769231        0        
C2        C        0.84375        0.62963        0.5783164230769231        0        
C3        C        0.8125        0.648148        0.5783164230769231        0        
C4        C        0.84375        0.592592        0.5783164230769231        0        
C1        C        0.875        0.018519        0.5783164230769231        0        
C2        C        0.9062500000000001        0.074075        0.5783164230769231        0        
C3        C        0.875        0.092592        0.5783164230769231        0        
C4        C        0.9062500000000001        0.037037        0.5783164230769231        0        
C1        C        0.875        0.12963        0.5783164230769231        0        
C2        C        0.9062500000000001        0.185185        0.5783164230769231        0        
C3        C        0.875        0.203703        0.5783164230769231        0        
C4        C        0.9062500000000001        0.148148        0.5783164230769231        0        
C1        C        0.875        0.24074099999999998        0.5783164230769231        0        
C2        C        0.9062500000000001        0.296297        0.5783164230769231        0        
C3        C        0.875        0.314815        0.5783164230769231        0        
C4        C        0.9062500000000001        0.259259        0.5783164230769231        0        
C1        C        0.875        0.351852        0.5783164230769231        0        
C2        C        0.9062500000000001        0.407408        0.5783164230769231        0        
C3        C        0.875        0.42592500000000005        0.5783164230769231        0        
C4        C        0.9062500000000001        0.37037        0.5783164230769231        0        
C1        C        0.875        0.46296300000000007        0.5783164230769231        0        
C2        C        0.9062500000000001        0.518519        0.5783164230769231        0        
C3        C        0.875        0.537037        0.5783164230769231        0        
C4        C        0.9062500000000001        0.481481        0.5783164230769231        0        
C1        C        0.875        0.574075        0.5783164230769231        0        
C2        C        0.9062500000000001        0.62963        0.5783164230769231        0        
C3        C        0.875        0.648148        0.5783164230769231        0        
C4        C        0.9062500000000001        0.592592        0.5783164230769231        0        
C1        C        0.9375        0.018519        0.5783164230769231        0        
C2        C        0.9687500000000001        0.074075        0.5783164230769231        0        
C3        C        0.9375        0.092592        0.5783164230769231        0        
C4        C        0.9687500000000001        0.037037        0.5783164230769231        0        
C1        C        0.9375        0.12963        0.5783164230769231        0        
C2        C        0.9687500000000001        0.185185        0.5783164230769231        0        
C3        C        0.9375        0.203703        0.5783164230769231        0        
C4        C        0.9687500000000001        0.148148        0.5783164230769231        0        
C1        C        0.9375        0.24074099999999998        0.5783164230769231        0        
C2        C        0.9687500000000001        0.296297        0.5783164230769231        0        
C3        C        0.9375        0.314815        0.5783164230769231        0        
C4        C        0.9687500000000001        0.259259        0.5783164230769231        0        
C1        C        0.9375        0.351852        0.5783164230769231        0        
C2        C        0.9687500000000001        0.407408        0.5783164230769231        0        
C3        C        0.9375        0.42592500000000005        0.5783164230769231        0        
C4        C        0.9687500000000001        0.37037        0.5783164230769231        0        
C1        C        0.9375        0.46296300000000007        0.5783164230769231        0        
C2        C        0.9687500000000001        0.518519        0.5783164230769231        0        
C3        C        0.9375        0.537037        0.5783164230769231        0        
C4        C        0.9687500000000001        0.481481        0.5783164230769231        0        
C1        C        0.9375        0.574075        0.5783164230769231        0        
C2        C        0.9687500000000001        0.62963        0.5783164230769231        0        
C3        C        0.9375        0.648148        0.5783164230769231        0        
C4        C        0.9687500000000001        0.592592        0.5783164230769231        0        
C1        C        0.0        0.685186        0.5783164230769231        0        
C1        C        0.0625        0.685186        0.5783164230769231        0        
C1        C        0.125        0.685186        0.5783164230769231        0        
C1        C        0.1875        0.685186        0.5783164230769231        0        
C1        C        0.25        0.685186        0.5783164230769231        0        
C1        C        0.3125        0.685186        0.5783164230769231        0        
C1        C        0.375        0.685186        0.5783164230769231        0        
C1        C        0.4375        0.685186        0.5783164230769231        0        
C1        C        0.5        0.685186        0.5783164230769231        0        
C1        C        0.5625        0.685186        0.5783164230769231        0        
C1        C        0.625        0.685186        0.5783164230769231        0        
C1        C        0.6875        0.685186        0.5783164230769231        0        
C1        C        0.75        0.685186        0.5783164230769231        0        
C1        C        0.8125        0.685186        0.5783164230769231        0        
C1        C        0.875        0.685186        0.5783164230769231        0        
C1        C        0.9375        0.685186        0.5783164230769231        0        
C2        C        0.03125        0.740741        0.5783164230769231        0        
C2        C        0.09375        0.740741        0.5783164230769231        0        
C2        C        0.15625        0.740741        0.5783164230769231        0        
C2        C        0.21875        0.740741        0.5783164230769231        0        
C2        C        0.28125        0.740741        0.5783164230769231        0        
C2        C        0.34375        0.740741        0.5783164230769231        0        
C2        C        0.40625        0.740741        0.5783164230769231        0        
C2        C        0.46875        0.740741        0.5783164230769231        0        
C2        C        0.53125        0.740741        0.5783164230769231        0        
C2        C        0.59375        0.740741        0.5783164230769231        0        
C2        C        0.65625        0.740741        0.5783164230769231        0        
C2        C        0.71875        0.740741        0.5783164230769231        0        
C2        C        0.78125        0.740741        0.5783164230769231        0        
C2        C        0.84375        0.740741        0.5783164230769231        0        
C2        C        0.9062500000000001        0.740741        0.5783164230769231        0        
C2        C        0.9687500000000001        0.740741        0.5783164230769231        0        
C3        C        0.0        0.759259        0.5783164230769231        0        
C3        C        0.0625        0.759259        0.5783164230769231        0        
C3        C        0.125        0.759259        0.5783164230769231        0        
C3        C        0.1875        0.759259        0.5783164230769231        0        
C3        C        0.25        0.759259        0.5783164230769231        0        
C3        C        0.3125        0.759259        0.5783164230769231        0        
C3        C        0.375        0.759259        0.5783164230769231        0        
C3        C        0.4375        0.759259        0.5783164230769231        0        
C3        C        0.5        0.759259        0.5783164230769231        0        
C3        C        0.5625        0.759259        0.5783164230769231        0        
C3        C        0.625        0.759259        0.5783164230769231        0        
C3        C        0.6875        0.759259        0.5783164230769231        0        
C3        C        0.75        0.759259        0.5783164230769231        0        
C3        C        0.8125        0.759259        0.5783164230769231        0        
C3        C        0.875        0.759259        0.5783164230769231        0        
C3        C        0.9375        0.759259        0.5783164230769231        0        
C4        C        0.03125        0.703703        0.5783164230769231        0        
C4        C        0.09375        0.703703        0.5783164230769231        0        
C4        C        0.15625        0.703703        0.5783164230769231        0        
C4        C        0.21875        0.703703        0.5783164230769231        0        
C4        C        0.28125        0.703703        0.5783164230769231        0        
C4        C        0.34375        0.703703        0.5783164230769231        0        
C4        C        0.40625        0.703703        0.5783164230769231        0        
C4        C        0.46875        0.703703        0.5783164230769231        0        
C4        C        0.53125        0.703703        0.5783164230769231        0        
C4        C        0.59375        0.703703        0.5783164230769231        0        
C4        C        0.65625        0.703703        0.5783164230769231        0        
C4        C        0.71875        0.703703        0.5783164230769231        0        
C4        C        0.78125        0.703703        0.5783164230769231        0        
C4        C        0.84375        0.703703        0.5783164230769231        0        
C4        C        0.9062500000000001        0.703703        0.5783164230769231        0        
C4        C        0.9687500000000001        0.703703        0.5783164230769231        0        
C1        C        0.0        0.796297        0.5783164230769231        0        
C1        C        0.0625        0.796297        0.5783164230769231        0        
C1        C        0.125        0.796297        0.5783164230769231        0        
C1        C        0.1875        0.796297        0.5783164230769231        0        
C1        C        0.25        0.796297        0.5783164230769231        0        
C1        C        0.3125        0.796297        0.5783164230769231        0        
C1        C        0.375        0.796297        0.5783164230769231        0        
C1        C        0.4375        0.796297        0.5783164230769231        0        
C1        C        0.5        0.796297        0.5783164230769231        0        
C1        C        0.5625        0.796297        0.5783164230769231        0        
C1        C        0.625        0.796297        0.5783164230769231        0        
C1        C        0.6875        0.796297        0.5783164230769231        0        
C1        C        0.75        0.796297        0.5783164230769231        0        
C1        C        0.8125        0.796297        0.5783164230769231        0        
C1        C        0.875        0.796297        0.5783164230769231        0        
C1        C        0.9375        0.796297        0.5783164230769231        0        
C2        C        0.03125        0.851852        0.5783164230769231        0        
C2        C        0.09375        0.851852        0.5783164230769231        0        
C2        C        0.15625        0.851852        0.5783164230769231        0        
C2        C        0.21875        0.851852        0.5783164230769231        0        
C2        C        0.28125        0.851852        0.5783164230769231        0        
C2        C        0.34375        0.851852        0.5783164230769231        0        
C2        C        0.40625        0.851852        0.5783164230769231        0        
C2        C        0.46875        0.851852        0.5783164230769231        0        
C2        C        0.53125        0.851852        0.5783164230769231        0        
C2        C        0.59375        0.851852        0.5783164230769231        0        
C2        C        0.65625        0.851852        0.5783164230769231        0        
C2        C        0.71875        0.851852        0.5783164230769231        0        
C2        C        0.78125        0.851852        0.5783164230769231        0        
C2        C        0.84375        0.851852        0.5783164230769231        0        
C2        C        0.9062500000000001        0.851852        0.5783164230769231        0        
C2        C        0.9687500000000001        0.851852        0.5783164230769231        0        
C3        C        0.0        0.87037        0.5783164230769231        0        
C3        C        0.0625        0.87037        0.5783164230769231        0        
C3        C        0.125        0.87037        0.5783164230769231        0        
C3        C        0.1875        0.87037        0.5783164230769231        0        
C3        C        0.25        0.87037        0.5783164230769231        0        
C3        C        0.3125        0.87037        0.5783164230769231        0        
C3        C        0.375        0.87037        0.5783164230769231        0        
C3        C        0.4375        0.87037        0.5783164230769231        0        
C3        C        0.5        0.87037        0.5783164230769231        0        
C3        C        0.5625        0.87037        0.5783164230769231        0        
C3        C        0.625        0.87037        0.5783164230769231        0        
C3        C        0.6875        0.87037        0.5783164230769231        0        
C3        C        0.75        0.87037        0.5783164230769231        0        
C3        C        0.8125        0.87037        0.5783164230769231        0        
C3        C        0.875        0.87037        0.5783164230769231        0        
C3        C        0.9375        0.87037        0.5783164230769231        0        
C4        C        0.03125        0.814814        0.5783164230769231        0        
C4        C        0.09375        0.814814        0.5783164230769231        0        
C4        C        0.15625        0.814814        0.5783164230769231        0        
C4        C        0.21875        0.814814        0.5783164230769231        0        
C4        C        0.28125        0.814814        0.5783164230769231        0        
C4        C        0.34375        0.814814        0.5783164230769231        0        
C4        C        0.40625        0.814814        0.5783164230769231        0        
C4        C        0.46875        0.814814        0.5783164230769231        0        
C4        C        0.53125        0.814814        0.5783164230769231        0        
C4        C        0.59375        0.814814        0.5783164230769231        0        
C4        C        0.65625        0.814814        0.5783164230769231        0        
C4        C        0.71875        0.814814        0.5783164230769231        0        
C4        C        0.78125        0.814814        0.5783164230769231        0        
C4        C        0.84375        0.814814        0.5783164230769231        0        
C4        C        0.9062500000000001        0.814814        0.5783164230769231        0        
C4        C        0.9687500000000001        0.814814        0.5783164230769231        0        
C1        C        0.0        0.907408        0.5783164230769231        0        
C1        C        0.0625        0.907408        0.5783164230769231        0        
C1        C        0.125        0.907408        0.5783164230769231        0        
C1        C        0.1875        0.907408        0.5783164230769231        0        
C1        C        0.25        0.907408        0.5783164230769231        0        
C1        C        0.3125        0.907408        0.5783164230769231        0        
C1        C        0.375        0.907408        0.5783164230769231        0        
C1        C        0.4375        0.907408        0.5783164230769231        0        
C1        C        0.5        0.907408        0.5783164230769231        0        
C1        C        0.5625        0.907408        0.5783164230769231        0        
C1        C        0.625        0.907408        0.5783164230769231        0        
C1        C        0.6875        0.907408        0.5783164230769231        0        
C1        C        0.75        0.907408        0.5783164230769231        0        
C1        C        0.8125        0.907408        0.5783164230769231        0        
C1        C        0.875        0.907408        0.5783164230769231        0        
C1        C        0.9375        0.907408        0.5783164230769231        0        
C2        C        0.03125        0.962963        0.5783164230769231        0        
C2        C        0.09375        0.962963        0.5783164230769231        0        
C2        C        0.15625        0.962963        0.5783164230769231        0        
C2        C        0.21875        0.962963        0.5783164230769231        0        
C2        C        0.28125        0.962963        0.5783164230769231        0        
C2        C        0.34375        0.962963        0.5783164230769231        0        
C2        C        0.40625        0.962963        0.5783164230769231        0        
C2        C        0.46875        0.962963        0.5783164230769231        0        
C2        C        0.53125        0.962963        0.5783164230769231        0        
C2        C        0.59375        0.962963        0.5783164230769231        0        
C2        C        0.65625        0.962963        0.5783164230769231        0        
C2        C        0.71875        0.962963        0.5783164230769231        0        
C2        C        0.78125        0.962963        0.5783164230769231        0        
C2        C        0.84375        0.962963        0.5783164230769231        0        
C2        C        0.9062500000000001        0.962963        0.5783164230769231        0        
C2        C        0.9687500000000001        0.962963        0.5783164230769231        0        
C3        C        0.0        0.9814809999999999        0.5783164230769231        0        
C3        C        0.0625        0.9814809999999999        0.5783164230769231        0        
C3        C        0.125        0.9814809999999999        0.5783164230769231        0        
C3        C        0.1875        0.9814809999999999        0.5783164230769231        0        
C3        C        0.25        0.9814809999999999        0.5783164230769231        0        
C3        C        0.3125        0.9814809999999999        0.5783164230769231        0        
C3        C        0.375        0.9814809999999999        0.5783164230769231        0        
C3        C        0.4375        0.9814809999999999        0.5783164230769231        0        
C3        C        0.5        0.9814809999999999        0.5783164230769231        0        
C3        C        0.5625        0.9814809999999999        0.5783164230769231        0        
C3        C        0.625        0.9814809999999999        0.5783164230769231        0        
C3        C        0.6875        0.9814809999999999        0.5783164230769231        0        
C3        C        0.75        0.9814809999999999        0.5783164230769231        0        
C3        C        0.8125        0.9814809999999999        0.5783164230769231        0        
C3        C        0.875        0.9814809999999999        0.5783164230769231        0        
C3        C        0.9375        0.9814809999999999        0.5783164230769231        0        
C4        C        0.03125        0.925925        0.5783164230769231        0        
C4        C        0.09375        0.925925        0.5783164230769231        0        
C4        C        0.15625        0.925925        0.5783164230769231        0        
C4        C        0.21875        0.925925        0.5783164230769231        0        
C4        C        0.28125        0.925925        0.5783164230769231        0        
C4        C        0.34375        0.925925        0.5783164230769231        0        
C4        C        0.40625        0.925925        0.5783164230769231        0        
C4        C        0.46875        0.925925        0.5783164230769231        0        
C4        C        0.53125        0.925925        0.5783164230769231        0        
C4        C        0.59375        0.925925        0.5783164230769231        0        
C4        C        0.65625        0.925925        0.5783164230769231        0        
C4        C        0.71875        0.925925        0.5783164230769231        0        
C4        C        0.78125        0.925925        0.5783164230769231        0        
C4        C        0.84375        0.925925        0.5783164230769231        0        
C4        C        0.9062500000000001        0.925925        0.5783164230769231        0        
C4        C        0.9687500000000001        0.925925        0.5783164230769231        0        
C_COOH        C        0.0        0.018519        0.05139352564102564        0.55        
O1_COOH        O        0.0007727329621400378        0.048069298965798965        0.0235051282051282        -0.5        
O2_COOH        O        -0.0007523692350898071        -0.010252563941055453        0.0        -0.58        
H_COOH        H        -0.001280546087928614        -0.030450723813745136        0.03742051282051283        0.45        
C_COOH        C        0.0        0.203703        0.05139352564102564        0.55        
O1_COOH        O        0.0010118404925744053        0.2332456887372985        0.0235051282051282        -0.5        
O2_COOH        O        -0.0009851755971723864        0.17493884573612442        0.0        -0.58        
H_COOH        H        -0.001676786739866162        0.1547458875912446        0.03742051282051283        0.45        
C_COOH        C        0.0        0.351852        0.05139352564102564        0.55        
O1_COOH        O        -0.02298010443513201        0.36966469443666644        0.0235051282051282        -0.5        
O2_COOH        O        0.022374512856630124        0.3345087210863013        0.0        -0.58        
H_COOH        H        0.038081826810005284        0.3223334246396709        0.03742051282051283        0.45        
O_OH        O        0.0        0.537037        0.056970448717948714        -0.64        
H_OH        H        -0.019819652816135448        0.548701756245617        0.03541923076923077        0.44        
O_OH        O        0.25        0.018519        0.056970448717948714        -0.64        
H_OH        H        0.23638475653919508        0.03735234390763047        0.03541923076923077        0.44        
C_COOH        C        0.25        0.203703        0.05139352564102564        0.55        
O1_COOH        O        0.22359080388352165        0.21548435902567228        0.0235051282051282        -0.5        
O2_COOH        O        0.2757132381495209        0.19223211353242217        0.0        -0.58        
H_COOH        H        0.2937643978310935        0.1841793431224342        0.03742051282051283        0.45        
O_OH        O        0.25        0.351852        0.056970448717948714        -0.64        
H_OH        H        0.27258290233000754        0.3553988906463373        0.03541923076923077        0.44        
C_COOH        C        0.25        0.537037        0.05139352564102564        0.55        
O1_COOH        O        0.2787771893103965        0.5380731711369753        0.0235051282051282        -0.5        
O2_COOH        O        0.22198117206035026        0.5360281349406019        0.0        -0.58        
H_COOH        H        0.20231144651710717        0.5353198933656412        0.03742051282051283        0.45        
O_OH        O        0.5        0.018519        0.056970448717948714        -0.64        
H_OH        H        0.4828328090407562        0.033993566735060515        0.03541923076923077        0.44        
O_OH        O        0.5        0.203703        0.056970448717948714        -0.64        
H_OH        H        0.47717120070509933        0.2046039862546037        0.03541923076923077        0.44        
C_COOH        C        0.5        0.351852        0.05139352564102564        0.55        
O1_COOH        O        0.5270212943574573        0.36206632361741287        0.0235051282051282        -0.5        
O2_COOH        O        0.4736907941515088        0.3419068530688924        0.0        -0.58        
H_COOH        H        0.4552212543329572        0.33492517949412837        0.03742051282051283        0.45        
O_OH        O        0.5        0.537037        0.056970448717948714        -0.64        
H_OH        H        0.4905160337475453        0.5583740390636438        0.03541923076923077        0.44        
O_OH        O        0.75        0.018519        0.056970448717948714        -0.64        
H_OH        H        0.7696833008857159        0.030424597413325528        0.03541923076923077        0.44        
C_COOH        C        0.75        0.203703        0.05139352564102564        0.55        
O1_COOH        O        0.7328217549435676        0.22742740126811928        0.0235051282051282        -0.5        
O2_COOH        O        0.7667255490920175        0.18060380466397422        0.0        -0.58        
H_COOH        H        0.778467187996708        0.16438775046256254        0.03742051282051283        0.45        
C_COOH        C        0.75        0.351852        0.05139352564102564        0.55        
O1_COOH        O        0.7229244182335474        0.36191367424359594        0.0235051282051282        -0.5        
O2_COOH        O        0.776362062628753        0.3420554796944443        0.0        -0.58        
H_COOH        H        0.7948687088659988        0.3351781447072658        0.03742051282051283        0.45        
O_OH        O        0.75        0.537037        0.056970448717948714        -0.64        
H_OH        H        0.7706467806737732        0.5470764725399299        0.03541923076923077        0.44        
C_COOH        C        0.0        0.685186        0.05139352564102564        0.55        
O1_COOH        O        -0.02751613051664261        0.6938975029405723        0.0235051282051282        -0.5        
O2_COOH        O        0.02679100165742114        0.67670407011606        0.0        -0.58        
H_COOH        H        0.04559877087478804        0.6707496014547197        0.03742051282051283        0.45        
C_COOH        C        0.25        0.685186        0.05139352564102564        0.55        
O1_COOH        O        0.2657584533318611        0.7099272964658081        0.0235051282051282        -0.5        
O2_COOH        O        0.2346568270536101        0.6610967075676464        0.0        -0.58        
H_COOH        H        0.22388564128281177        0.6441855872418458        0.03742051282051283        0.45        
C_COOH        C        0.5        0.685186        0.05139352564102564        0.55        
O1_COOH        O        0.47433257025656317        0.69858420180119        0.0235051282051282        -0.5        
O2_COOH        O        0.5249910194452029        0.6721408791954945        0.0        -0.58        
H_COOH        H        0.5425351684935422        0.6629829677205479        0.03742051282051283        0.45        
O_OH        O        0.75        0.685186        0.056970448717948714        -0.64        
H_OH        H        0.7660178224278399        0.701909052242334        0.03541923076923077        0.44        
O_OH        O        0.0        0.87037        0.056970448717948714        -0.64        
H_OH        H        0.012598092916572707        0.8899351554361024        0.03541923076923077        0.44        
C_COOH        C        0.25        0.87037        0.05139352564102564        0.55        
O1_COOH        O        0.2762876333972198        0.8824344839967074        0.0235051282051282        -0.5        
O2_COOH        O        0.2244051210438681        0.8586234497153867        0.0        -0.58        
H_COOH        H        0.20643705166337792        0.8503771583046286        0.03742051282051283        0.45        
O_OH        O        0.5        0.87037        0.056970448717948714        -0.64        
H_OH        H        0.522166817833807        0.8760448563219342        0.03541923076923077        0.44        
O_OH        O        0.75        0.87037        0.056970448717948714        -0.64        
H_OH        H        0.7712418856378476        0.8790024290583401        0.03541923076923077        0.44        
C_COOH        C        0.0        0.018519        0.6757525        0.55        
O1_COOH        O        0.022430414765597997        0.03705544002770225        0.7036408974358974        -0.5        
O2_COOH        O        -0.021839309084477426        0.0004710482647626076        0.7271460256410257        -0.58        
H_COOH        H        -0.03717090027990472        -0.012198941287064984        0.6897255128205128        0.45        
C_COOH        C        0.0        0.203703        0.6757525        0.55        
O1_COOH        O        0.007244337021409929        0.23231312986033675        0.7036408974358974        -0.5        
O2_COOH        O        -0.007053427989452342        0.17584682901535822        0.7271460256410257        -0.58        
H_COOH        H        -0.012005062404367512        0.15629129160552307        0.6897255128205128        0.45        
C_COOH        C        0.0        0.351852        0.6757525        0.55        
O1_COOH        O        0.002724268408695976        0.38128034851782505        0.7036408974358974        -0.5        
O2_COOH        O        -0.002652476132444924        0.3231991727632866        0.7271460256410257        -0.58        
H_COOH        H        -0.004514562499782342        0.3030843682112173        0.6897255128205128        0.45        
O_OH        O        0.0        0.537037        0.6701755769230769        -0.64        
H_OH        H        -0.004097019536074989        0.5601102263372048        0.6917267948717949        0.44        
O_OH        O        0.25        0.018519        0.6701755769230769        -0.64        
H_OH        H        0.22806741937710684        0.025083346934349864        0.6917267948717949        0.44        
C_COOH        C        0.25        0.203703        0.6757525        0.55        
O1_COOH        O        0.278760902321086        0.20513872236629072        0.7036408974358974        -0.5        
O2_COOH        O        0.22199702984083822        0.20230511303069568        0.7271460256410257        -0.58        
H_COOH        H        0.20233843674719637        0.20132377101717833        0.6897255128205128        0.45        
O_OH        O        0.25        0.351852        0.6701755769230769        -0.64        
H_OH        H        0.2717986846475877        0.3588706745552287        0.6917267948717949        0.44        
C_COOH        C        0.25        0.537037        0.6757525        0.55        
O1_COOH        O        0.2563380238448934        0.5658729688805954        0.7036408974358974        -0.5        
O2_COOH        O        0.24382900123872386        0.5089609415002004        0.7271460256410257        -0.58        
H_COOH        H        0.2394968481513984        0.48925103906543077        0.6897255128205128        0.45        
O_OH        O        0.5        0.018519        0.6701755769230769        -0.64        
H_OH        H        0.5074019041269262        0.040707335048385654        0.6917267948717949        0.44        
O_OH        O        0.5        0.203703        0.6701755769230769        -0.64        
H_OH        H        0.49278618527847584        0.22595652763655516        0.6917267948717949        0.44        
C_COOH        C        0.5        0.351852        0.6757525        0.55        
O1_COOH        O        0.47183566759077233        0.35800441083453854        0.7036408974358974        -0.5        
O2_COOH        O        0.5274221215733587        0.34586172281456634        0.7271460256410257        -0.58        
H_COOH        H        0.5466729484217624        0.34165643955221076        0.6897255128205128        0.45        
O_OH        O        0.5        0.537037        0.6701755769230769        -0.64        
H_OH        H        0.5093601961625116        0.5584315630972456        0.6917267948717949        0.44        
O_OH        O        0.75        0.018519        0.6701755769230769        -0.64        
H_OH        H        0.7476021280879935        0.04184290527150625        0.6917267948717949        0.44        
C_COOH        C        0.75        0.203703        0.6757525        0.55        
O1_COOH        O        0.7393316660255674        0.23116023545214973        0.7036408974358974        -0.5        
O2_COOH        O        0.7603871928147047        0.17696934135341713        0.7271460256410257        -0.58        
H_COOH        H        0.7676791906195402        0.1582018279700002        0.6897255128205128        0.45        
C_COOH        C        0.75        0.351852        0.6757525        0.55        
O1_COOH        O        0.7659847081964667        0.3764398522768609        0.7036408974358974        -0.5        
O2_COOH        O        0.7344365346527952        0.3279121080626731        0.7271460256410257        -0.58        
H_COOH        H        0.7235106996199855        0.3111058695948693        0.6897255128205128        0.45        
O_OH        O        0.75        0.537037        0.6701755769230769        -0.64        
H_OH        H        0.7485976806972846        0.5604462252530472        0.6917267948717949        0.44        
C_COOH        C        0.0        0.685186        0.6757525        0.55        
O1_COOH        O        0.016239738224351586        0.7095970873636183        0.7036408974358974        -0.5        
O2_COOH        O        -0.015811774603320023        0.6614182147141078        0.7271460256410257        -0.58        
H_COOH        H        -0.02691192723885578        0.6447327982380439        0.6897255128205128        0.45        
C_COOH        C        0.25        0.685186        0.6757525        0.55        
O1_COOH        O        0.23181327810436222        0.7081045420093568        0.7036408974358974        -0.5        
O2_COOH        O        0.26770744967772236        0.66287142722288        0.7271460256410257        -0.58        
H_COOH        H        0.2801384006076398        0.6472061922927796        0.6897255128205128        0.45        
C_COOH        C        0.5        0.685186        0.6757525        0.55        
O1_COOH        O        0.4737120349543791        0.6972497223684363        0.7036408974358974        -0.5        
O2_COOH        O        0.5255952018646477        0.6734401912725714        0.7271460256410257        -0.58        
H_COOH        H        0.5435634979327743        0.6651944204484105        0.6897255128205128        0.45        
O_OH        O        0.75        0.685186        0.6701755769230769        -0.64        
H_OH        H        0.7510058897468952        0.7086167060269095        0.6917267948717949        0.44        
O_OH        O        0.0        0.87037        0.6701755769230769        -0.64        
H_OH        H        -0.016501224392289213        0.8865901467118633        0.6917267948717949        0.44        
C_COOH        C        0.25        0.87037        0.6757525        0.55        
O1_COOH        O        0.24829251906427133        0.8998789274076507        0.7036408974358974        -0.5        
O2_COOH        O        0.25166248392198365        0.8416387173580264        0.7271460256410257        -0.58        
H_COOH        H        0.2528295777967134        0.8214688356880928        0.6897255128205128        0.45        
O_OH        O        0.5        0.87037        0.6701755769230769        -0.64        
H_OH        H        0.4807245305716816        0.8829592220128611        0.6917267948717949        0.44        
O_OH        O        0.75        0.87037        0.6701755769230769        -0.64        
H_OH        H        0.7370847984641089        0.8897160232537474        0.6917267948717949        0.44        
