data_graphite_ortho

_audit_creation_method RASPA-1.0
_audit_creation_date 2012-2-3
_audit_author_name 'David Dubbeldam'

_cell_length_a    39.36    
_cell_length_b    38.34    
_cell_length_c    34.6    
_cell_angle_alpha 90
_cell_angle_beta  90
_cell_angle_gamma 90
_cell_volume      52213.56      

_symmetry_cell_setting          triclinic
_symmetry_space_group_name_Hall 'P 1'
_symmetry_space_group_name_H-M  'P 1'
_symmetry_Int_Tables_number     1

_symmetry_equiv_pos_as_xyz 'x,y,z'

loop_
_atom_site_label
_atom_site_type_symbol
_atom_site_fract_x
_atom_site_fract_y
_atom_site_fract_z
_atom_site_charge
C_FG        C        0.0        0.018519        0.05113291907514451        0.2        
C2        C        0.03125        0.074075        0.05113291907514451        0        
C3        C        0.0        0.092592        0.05113291907514451        0        
C4        C        0.03125        0.037037        0.05113291907514451        0        
C_FG        C        0.0        0.12963        0.05113291907514451        0.2        
C2        C        0.03125        0.185185        0.05113291907514451        0        
C3        C        0.0        0.203703        0.05113291907514451        0        
C4        C        0.03125        0.148148        0.05113291907514451        0        
C_FG        C        0.0        0.24074099999999998        0.05113291907514451        0.2        
C2        C        0.03125        0.296297        0.05113291907514451        0        
C3        C        0.0        0.314815        0.05113291907514451        0        
C4        C        0.03125        0.259259        0.05113291907514451        0        
C_FG        C        0.0        0.351852        0.05113291907514451        0.2        
C2        C        0.03125        0.407408        0.05113291907514451        0        
C3        C        0.0        0.42592500000000005        0.05113291907514451        0        
C4        C        0.03125        0.37037        0.05113291907514451        0        
C_FG        C        0.0        0.46296300000000007        0.05113291907514451        0.2        
C2        C        0.03125        0.518519        0.05113291907514451        0        
C3        C        0.0        0.537037        0.05113291907514451        0        
C4        C        0.03125        0.481481        0.05113291907514451        0        
C_FG        C        0.0        0.574075        0.05113291907514451        0.2        
C2        C        0.03125        0.62963        0.05113291907514451        0        
C3        C        0.0        0.648148        0.05113291907514451        0        
C4        C        0.03125        0.592592        0.05113291907514451        0        
C1        C        0.0625        0.018519        0.05113291907514451        0        
C2        C        0.09375        0.074075        0.05113291907514451        0        
C3        C        0.0625        0.092592        0.05113291907514451        0        
C4        C        0.09375        0.037037        0.05113291907514451        0        
C1        C        0.0625        0.12963        0.05113291907514451        0        
C2        C        0.09375        0.185185        0.05113291907514451        0        
C3        C        0.0625        0.203703        0.05113291907514451        0        
C4        C        0.09375        0.148148        0.05113291907514451        0        
C1        C        0.0625        0.24074099999999998        0.05113291907514451        0        
C2        C        0.09375        0.296297        0.05113291907514451        0        
C3        C        0.0625        0.314815        0.05113291907514451        0        
C4        C        0.09375        0.259259        0.05113291907514451        0        
C1        C        0.0625        0.351852        0.05113291907514451        0        
C2        C        0.09375        0.407408        0.05113291907514451        0        
C3        C        0.0625        0.42592500000000005        0.05113291907514451        0        
C4        C        0.09375        0.37037        0.05113291907514451        0        
C1        C        0.0625        0.46296300000000007        0.05113291907514451        0        
C2        C        0.09375        0.518519        0.05113291907514451        0        
C3        C        0.0625        0.537037        0.05113291907514451        0        
C4        C        0.09375        0.481481        0.05113291907514451        0        
C1        C        0.0625        0.574075        0.05113291907514451        0        
C2        C        0.09375        0.62963        0.05113291907514451        0        
C3        C        0.0625        0.648148        0.05113291907514451        0        
C4        C        0.09375        0.592592        0.05113291907514451        0        
C_FG        C        0.125        0.018519        0.05113291907514451        0.2        
C2        C        0.15625        0.074075        0.05113291907514451        0        
C3        C        0.125        0.092592        0.05113291907514451        0        
C4        C        0.15625        0.037037        0.05113291907514451        0        
C_FG        C        0.125        0.12963        0.05113291907514451        0.2        
C2        C        0.15625        0.185185        0.05113291907514451        0        
C3        C        0.125        0.203703        0.05113291907514451        0        
C4        C        0.15625        0.148148        0.05113291907514451        0        
C_FG        C        0.125        0.24074099999999998        0.05113291907514451        0.2        
C2        C        0.15625        0.296297        0.05113291907514451        0        
C3        C        0.125        0.314815        0.05113291907514451        0        
C4        C        0.15625        0.259259        0.05113291907514451        0        
C_FG        C        0.125        0.351852        0.05113291907514451        0.2        
C2        C        0.15625        0.407408        0.05113291907514451        0        
C3        C        0.125        0.42592500000000005        0.05113291907514451        0        
C4        C        0.15625        0.37037        0.05113291907514451        0        
C_FG        C        0.125        0.46296300000000007        0.05113291907514451        0.2        
C2        C        0.15625        0.518519        0.05113291907514451        0        
C3        C        0.125        0.537037        0.05113291907514451        0        
C4        C        0.15625        0.481481        0.05113291907514451        0        
C_FG        C        0.125        0.574075        0.05113291907514451        0.2        
C2        C        0.15625        0.62963        0.05113291907514451        0        
C3        C        0.125        0.648148        0.05113291907514451        0        
C4        C        0.15625        0.592592        0.05113291907514451        0        
C1        C        0.1875        0.018519        0.05113291907514451        0        
C2        C        0.21875        0.074075        0.05113291907514451        0        
C3        C        0.1875        0.092592        0.05113291907514451        0        
C4        C        0.21875        0.037037        0.05113291907514451        0        
C1        C        0.1875        0.12963        0.05113291907514451        0        
C2        C        0.21875        0.185185        0.05113291907514451        0        
C3        C        0.1875        0.203703        0.05113291907514451        0        
C4        C        0.21875        0.148148        0.05113291907514451        0        
C1        C        0.1875        0.24074099999999998        0.05113291907514451        0        
C2        C        0.21875        0.296297        0.05113291907514451        0        
C3        C        0.1875        0.314815        0.05113291907514451        0        
C4        C        0.21875        0.259259        0.05113291907514451        0        
C1        C        0.1875        0.351852        0.05113291907514451        0        
C2        C        0.21875        0.407408        0.05113291907514451        0        
C3        C        0.1875        0.42592500000000005        0.05113291907514451        0        
C4        C        0.21875        0.37037        0.05113291907514451        0        
C1        C        0.1875        0.46296300000000007        0.05113291907514451        0        
C2        C        0.21875        0.518519        0.05113291907514451        0        
C3        C        0.1875        0.537037        0.05113291907514451        0        
C4        C        0.21875        0.481481        0.05113291907514451        0        
C1        C        0.1875        0.574075        0.05113291907514451        0        
C2        C        0.21875        0.62963        0.05113291907514451        0        
C3        C        0.1875        0.648148        0.05113291907514451        0        
C4        C        0.21875        0.592592        0.05113291907514451        0        
C_FG        C        0.25        0.018519        0.05113291907514451        0.2        
C2        C        0.28125        0.074075        0.05113291907514451        0        
C3        C        0.25        0.092592        0.05113291907514451        0        
C4        C        0.28125        0.037037        0.05113291907514451        0        
C_FG        C        0.25        0.12963        0.05113291907514451        0.2        
C2        C        0.28125        0.185185        0.05113291907514451        0        
C3        C        0.25        0.203703        0.05113291907514451        0        
C4        C        0.28125        0.148148        0.05113291907514451        0        
C_FG        C        0.25        0.24074099999999998        0.05113291907514451        0.2        
C2        C        0.28125        0.296297        0.05113291907514451        0        
C3        C        0.25        0.314815        0.05113291907514451        0        
C4        C        0.28125        0.259259        0.05113291907514451        0        
C_FG        C        0.25        0.351852        0.05113291907514451        0.2        
C2        C        0.28125        0.407408        0.05113291907514451        0        
C3        C        0.25        0.42592500000000005        0.05113291907514451        0        
C4        C        0.28125        0.37037        0.05113291907514451        0        
C_FG        C        0.25        0.46296300000000007        0.05113291907514451        0.2        
C2        C        0.28125        0.518519        0.05113291907514451        0        
C3        C        0.25        0.537037        0.05113291907514451        0        
C4        C        0.28125        0.481481        0.05113291907514451        0        
C_FG        C        0.25        0.574075        0.05113291907514451        0.2        
C2        C        0.28125        0.62963        0.05113291907514451        0        
C3        C        0.25        0.648148        0.05113291907514451        0        
C4        C        0.28125        0.592592        0.05113291907514451        0        
C1        C        0.3125        0.018519        0.05113291907514451        0        
C2        C        0.34375        0.074075        0.05113291907514451        0        
C3        C        0.3125        0.092592        0.05113291907514451        0        
C4        C        0.34375        0.037037        0.05113291907514451        0        
C1        C        0.3125        0.12963        0.05113291907514451        0        
C2        C        0.34375        0.185185        0.05113291907514451        0        
C3        C        0.3125        0.203703        0.05113291907514451        0        
C4        C        0.34375        0.148148        0.05113291907514451        0        
C1        C        0.3125        0.24074099999999998        0.05113291907514451        0        
C2        C        0.34375        0.296297        0.05113291907514451        0        
C3        C        0.3125        0.314815        0.05113291907514451        0        
C4        C        0.34375        0.259259        0.05113291907514451        0        
C1        C        0.3125        0.351852        0.05113291907514451        0        
C2        C        0.34375        0.407408        0.05113291907514451        0        
C3        C        0.3125        0.42592500000000005        0.05113291907514451        0        
C4        C        0.34375        0.37037        0.05113291907514451        0        
C1        C        0.3125        0.46296300000000007        0.05113291907514451        0        
C2        C        0.34375        0.518519        0.05113291907514451        0        
C3        C        0.3125        0.537037        0.05113291907514451        0        
C4        C        0.34375        0.481481        0.05113291907514451        0        
C1        C        0.3125        0.574075        0.05113291907514451        0        
C2        C        0.34375        0.62963        0.05113291907514451        0        
C3        C        0.3125        0.648148        0.05113291907514451        0        
C4        C        0.34375        0.592592        0.05113291907514451        0        
C_FG        C        0.375        0.018519        0.05113291907514451        0.2        
C2        C        0.40625        0.074075        0.05113291907514451        0        
C3        C        0.375        0.092592        0.05113291907514451        0        
C4        C        0.40625        0.037037        0.05113291907514451        0        
C_FG        C        0.375        0.12963        0.05113291907514451        0.2        
C2        C        0.40625        0.185185        0.05113291907514451        0        
C3        C        0.375        0.203703        0.05113291907514451        0        
C4        C        0.40625        0.148148        0.05113291907514451        0        
C_FG        C        0.375        0.24074099999999998        0.05113291907514451        0.2        
C2        C        0.40625        0.296297        0.05113291907514451        0        
C3        C        0.375        0.314815        0.05113291907514451        0        
C4        C        0.40625        0.259259        0.05113291907514451        0        
C_FG        C        0.375        0.351852        0.05113291907514451        0.2        
C2        C        0.40625        0.407408        0.05113291907514451        0        
C3        C        0.375        0.42592500000000005        0.05113291907514451        0        
C4        C        0.40625        0.37037        0.05113291907514451        0        
C_FG        C        0.375        0.46296300000000007        0.05113291907514451        0.2        
C2        C        0.40625        0.518519        0.05113291907514451        0        
C3        C        0.375        0.537037        0.05113291907514451        0        
C4        C        0.40625        0.481481        0.05113291907514451        0        
C_FG        C        0.375        0.574075        0.05113291907514451        0.2        
C2        C        0.40625        0.62963        0.05113291907514451        0        
C3        C        0.375        0.648148        0.05113291907514451        0        
C4        C        0.40625        0.592592        0.05113291907514451        0        
C1        C        0.4375        0.018519        0.05113291907514451        0        
C2        C        0.46875        0.074075        0.05113291907514451        0        
C3        C        0.4375        0.092592        0.05113291907514451        0        
C4        C        0.46875        0.037037        0.05113291907514451        0        
C1        C        0.4375        0.12963        0.05113291907514451        0        
C2        C        0.46875        0.185185        0.05113291907514451        0        
C3        C        0.4375        0.203703        0.05113291907514451        0        
C4        C        0.46875        0.148148        0.05113291907514451        0        
C1        C        0.4375        0.24074099999999998        0.05113291907514451        0        
C2        C        0.46875        0.296297        0.05113291907514451        0        
C3        C        0.4375        0.314815        0.05113291907514451        0        
C4        C        0.46875        0.259259        0.05113291907514451        0        
C1        C        0.4375        0.351852        0.05113291907514451        0        
C2        C        0.46875        0.407408        0.05113291907514451        0        
C3        C        0.4375        0.42592500000000005        0.05113291907514451        0        
C4        C        0.46875        0.37037        0.05113291907514451        0        
C1        C        0.4375        0.46296300000000007        0.05113291907514451        0        
C2        C        0.46875        0.518519        0.05113291907514451        0        
C3        C        0.4375        0.537037        0.05113291907514451        0        
C4        C        0.46875        0.481481        0.05113291907514451        0        
C1        C        0.4375        0.574075        0.05113291907514451        0        
C2        C        0.46875        0.62963        0.05113291907514451        0        
C3        C        0.4375        0.648148        0.05113291907514451        0        
C4        C        0.46875        0.592592        0.05113291907514451        0        
C_FG        C        0.5        0.018519        0.05113291907514451        0.2        
C2        C        0.53125        0.074075        0.05113291907514451        0        
C3        C        0.5        0.092592        0.05113291907514451        0        
C4        C        0.53125        0.037037        0.05113291907514451        0        
C_FG        C        0.5        0.12963        0.05113291907514451        0.2        
C2        C        0.53125        0.185185        0.05113291907514451        0        
C3        C        0.5        0.203703        0.05113291907514451        0        
C4        C        0.53125        0.148148        0.05113291907514451        0        
C_FG        C        0.5        0.24074099999999998        0.05113291907514451        0.2        
C2        C        0.53125        0.296297        0.05113291907514451        0        
C3        C        0.5        0.314815        0.05113291907514451        0        
C4        C        0.53125        0.259259        0.05113291907514451        0        
C_FG        C        0.5        0.351852        0.05113291907514451        0.2        
C2        C        0.53125        0.407408        0.05113291907514451        0        
C3        C        0.5        0.42592500000000005        0.05113291907514451        0        
C4        C        0.53125        0.37037        0.05113291907514451        0        
C_FG        C        0.5        0.46296300000000007        0.05113291907514451        0.2        
C2        C        0.53125        0.518519        0.05113291907514451        0        
C3        C        0.5        0.537037        0.05113291907514451        0        
C4        C        0.53125        0.481481        0.05113291907514451        0        
C_FG        C        0.5        0.574075        0.05113291907514451        0.2        
C2        C        0.53125        0.62963        0.05113291907514451        0        
C3        C        0.5        0.648148        0.05113291907514451        0        
C4        C        0.53125        0.592592        0.05113291907514451        0        
C1        C        0.5625        0.018519        0.05113291907514451        0        
C2        C        0.59375        0.074075        0.05113291907514451        0        
C3        C        0.5625        0.092592        0.05113291907514451        0        
C4        C        0.59375        0.037037        0.05113291907514451        0        
C1        C        0.5625        0.12963        0.05113291907514451        0        
C2        C        0.59375        0.185185        0.05113291907514451        0        
C3        C        0.5625        0.203703        0.05113291907514451        0        
C4        C        0.59375        0.148148        0.05113291907514451        0        
C1        C        0.5625        0.24074099999999998        0.05113291907514451        0        
C2        C        0.59375        0.296297        0.05113291907514451        0        
C3        C        0.5625        0.314815        0.05113291907514451        0        
C4        C        0.59375        0.259259        0.05113291907514451        0        
C1        C        0.5625        0.351852        0.05113291907514451        0        
C2        C        0.59375        0.407408        0.05113291907514451        0        
C3        C        0.5625        0.42592500000000005        0.05113291907514451        0        
C4        C        0.59375        0.37037        0.05113291907514451        0        
C1        C        0.5625        0.46296300000000007        0.05113291907514451        0        
C2        C        0.59375        0.518519        0.05113291907514451        0        
C3        C        0.5625        0.537037        0.05113291907514451        0        
C4        C        0.59375        0.481481        0.05113291907514451        0        
C1        C        0.5625        0.574075        0.05113291907514451        0        
C2        C        0.59375        0.62963        0.05113291907514451        0        
C3        C        0.5625        0.648148        0.05113291907514451        0        
C4        C        0.59375        0.592592        0.05113291907514451        0        
C_FG        C        0.625        0.018519        0.05113291907514451        0.2        
C2        C        0.65625        0.074075        0.05113291907514451        0        
C3        C        0.625        0.092592        0.05113291907514451        0        
C4        C        0.65625        0.037037        0.05113291907514451        0        
C_FG        C        0.625        0.12963        0.05113291907514451        0.2        
C2        C        0.65625        0.185185        0.05113291907514451        0        
C3        C        0.625        0.203703        0.05113291907514451        0        
C4        C        0.65625        0.148148        0.05113291907514451        0        
C_FG        C        0.625        0.24074099999999998        0.05113291907514451        0.2        
C2        C        0.65625        0.296297        0.05113291907514451        0        
C3        C        0.625        0.314815        0.05113291907514451        0        
C4        C        0.65625        0.259259        0.05113291907514451        0        
C_FG        C        0.625        0.351852        0.05113291907514451        0.2        
C2        C        0.65625        0.407408        0.05113291907514451        0        
C3        C        0.625        0.42592500000000005        0.05113291907514451        0        
C4        C        0.65625        0.37037        0.05113291907514451        0        
C_FG        C        0.625        0.46296300000000007        0.05113291907514451        0.2        
C2        C        0.65625        0.518519        0.05113291907514451        0        
C3        C        0.625        0.537037        0.05113291907514451        0        
C4        C        0.65625        0.481481        0.05113291907514451        0        
C_FG        C        0.625        0.574075        0.05113291907514451        0.2        
C2        C        0.65625        0.62963        0.05113291907514451        0        
C3        C        0.625        0.648148        0.05113291907514451        0        
C4        C        0.65625        0.592592        0.05113291907514451        0        
C1        C        0.6875        0.018519        0.05113291907514451        0        
C2        C        0.71875        0.074075        0.05113291907514451        0        
C3        C        0.6875        0.092592        0.05113291907514451        0        
C4        C        0.71875        0.037037        0.05113291907514451        0        
C1        C        0.6875        0.12963        0.05113291907514451        0        
C2        C        0.71875        0.185185        0.05113291907514451        0        
C3        C        0.6875        0.203703        0.05113291907514451        0        
C4        C        0.71875        0.148148        0.05113291907514451        0        
C1        C        0.6875        0.24074099999999998        0.05113291907514451        0        
C2        C        0.71875        0.296297        0.05113291907514451        0        
C3        C        0.6875        0.314815        0.05113291907514451        0        
C4        C        0.71875        0.259259        0.05113291907514451        0        
C1        C        0.6875        0.351852        0.05113291907514451        0        
C2        C        0.71875        0.407408        0.05113291907514451        0        
C3        C        0.6875        0.42592500000000005        0.05113291907514451        0        
C4        C        0.71875        0.37037        0.05113291907514451        0        
C1        C        0.6875        0.46296300000000007        0.05113291907514451        0        
C2        C        0.71875        0.518519        0.05113291907514451        0        
C3        C        0.6875        0.537037        0.05113291907514451        0        
C4        C        0.71875        0.481481        0.05113291907514451        0        
C1        C        0.6875        0.574075        0.05113291907514451        0        
C2        C        0.71875        0.62963        0.05113291907514451        0        
C3        C        0.6875        0.648148        0.05113291907514451        0        
C4        C        0.71875        0.592592        0.05113291907514451        0        
C_FG        C        0.75        0.018519        0.05113291907514451        0.2        
C2        C        0.78125        0.074075        0.05113291907514451        0        
C3        C        0.75        0.092592        0.05113291907514451        0        
C4        C        0.78125        0.037037        0.05113291907514451        0        
C_FG        C        0.75        0.12963        0.05113291907514451        0.2        
C2        C        0.78125        0.185185        0.05113291907514451        0        
C3        C        0.75        0.203703        0.05113291907514451        0        
C4        C        0.78125        0.148148        0.05113291907514451        0        
C_FG        C        0.75        0.24074099999999998        0.05113291907514451        0.2        
C2        C        0.78125        0.296297        0.05113291907514451        0        
C3        C        0.75        0.314815        0.05113291907514451        0        
C4        C        0.78125        0.259259        0.05113291907514451        0        
C_FG        C        0.75        0.351852        0.05113291907514451        0.2        
C2        C        0.78125        0.407408        0.05113291907514451        0        
C3        C        0.75        0.42592500000000005        0.05113291907514451        0        
C4        C        0.78125        0.37037        0.05113291907514451        0        
C_FG        C        0.75        0.46296300000000007        0.05113291907514451        0.2        
C2        C        0.78125        0.518519        0.05113291907514451        0        
C3        C        0.75        0.537037        0.05113291907514451        0        
C4        C        0.78125        0.481481        0.05113291907514451        0        
C_FG        C        0.75        0.574075        0.05113291907514451        0.2        
C2        C        0.78125        0.62963        0.05113291907514451        0        
C3        C        0.75        0.648148        0.05113291907514451        0        
C4        C        0.78125        0.592592        0.05113291907514451        0        
C1        C        0.8125        0.018519        0.05113291907514451        0        
C2        C        0.84375        0.074075        0.05113291907514451        0        
C3        C        0.8125        0.092592        0.05113291907514451        0        
C4        C        0.84375        0.037037        0.05113291907514451        0        
C1        C        0.8125        0.12963        0.05113291907514451        0        
C2        C        0.84375        0.185185        0.05113291907514451        0        
C3        C        0.8125        0.203703        0.05113291907514451        0        
C4        C        0.84375        0.148148        0.05113291907514451        0        
C1        C        0.8125        0.24074099999999998        0.05113291907514451        0        
C2        C        0.84375        0.296297        0.05113291907514451        0        
C3        C        0.8125        0.314815        0.05113291907514451        0        
C4        C        0.84375        0.259259        0.05113291907514451        0        
C1        C        0.8125        0.351852        0.05113291907514451        0        
C2        C        0.84375        0.407408        0.05113291907514451        0        
C3        C        0.8125        0.42592500000000005        0.05113291907514451        0        
C4        C        0.84375        0.37037        0.05113291907514451        0        
C1        C        0.8125        0.46296300000000007        0.05113291907514451        0        
C2        C        0.84375        0.518519        0.05113291907514451        0        
C3        C        0.8125        0.537037        0.05113291907514451        0        
C4        C        0.84375        0.481481        0.05113291907514451        0        
C1        C        0.8125        0.574075        0.05113291907514451        0        
C2        C        0.84375        0.62963        0.05113291907514451        0        
C3        C        0.8125        0.648148        0.05113291907514451        0        
C4        C        0.84375        0.592592        0.05113291907514451        0        
C_FG        C        0.875        0.018519        0.05113291907514451        0.2        
C2        C        0.9062500000000001        0.074075        0.05113291907514451        0        
C3        C        0.875        0.092592        0.05113291907514451        0        
C4        C        0.9062500000000001        0.037037        0.05113291907514451        0        
C_FG        C        0.875        0.12963        0.05113291907514451        0.2        
C2        C        0.9062500000000001        0.185185        0.05113291907514451        0        
C3        C        0.875        0.203703        0.05113291907514451        0        
C4        C        0.9062500000000001        0.148148        0.05113291907514451        0        
C_FG        C        0.875        0.24074099999999998        0.05113291907514451        0.2        
C2        C        0.9062500000000001        0.296297        0.05113291907514451        0        
C3        C        0.875        0.314815        0.05113291907514451        0        
C4        C        0.9062500000000001        0.259259        0.05113291907514451        0        
C_FG        C        0.875        0.351852        0.05113291907514451        0.2        
C2        C        0.9062500000000001        0.407408        0.05113291907514451        0        
C3        C        0.875        0.42592500000000005        0.05113291907514451        0        
C4        C        0.9062500000000001        0.37037        0.05113291907514451        0        
C_FG        C        0.875        0.46296300000000007        0.05113291907514451        0.2        
C2        C        0.9062500000000001        0.518519        0.05113291907514451        0        
C3        C        0.875        0.537037        0.05113291907514451        0        
C4        C        0.9062500000000001        0.481481        0.05113291907514451        0        
C_FG        C        0.875        0.574075        0.05113291907514451        0.2        
C2        C        0.9062500000000001        0.62963        0.05113291907514451        0        
C3        C        0.875        0.648148        0.05113291907514451        0        
C4        C        0.9062500000000001        0.592592        0.05113291907514451        0        
C1        C        0.9375        0.018519        0.05113291907514451        0        
C2        C        0.9687500000000001        0.074075        0.05113291907514451        0        
C3        C        0.9375        0.092592        0.05113291907514451        0        
C4        C        0.9687500000000001        0.037037        0.05113291907514451        0        
C1        C        0.9375        0.12963        0.05113291907514451        0        
C2        C        0.9687500000000001        0.185185        0.05113291907514451        0        
C3        C        0.9375        0.203703        0.05113291907514451        0        
C4        C        0.9687500000000001        0.148148        0.05113291907514451        0        
C1        C        0.9375        0.24074099999999998        0.05113291907514451        0        
C2        C        0.9687500000000001        0.296297        0.05113291907514451        0        
C3        C        0.9375        0.314815        0.05113291907514451        0        
C4        C        0.9687500000000001        0.259259        0.05113291907514451        0        
C1        C        0.9375        0.351852        0.05113291907514451        0        
C2        C        0.9687500000000001        0.407408        0.05113291907514451        0        
C3        C        0.9375        0.42592500000000005        0.05113291907514451        0        
C4        C        0.9687500000000001        0.37037        0.05113291907514451        0        
C1        C        0.9375        0.46296300000000007        0.05113291907514451        0        
C2        C        0.9687500000000001        0.518519        0.05113291907514451        0        
C3        C        0.9375        0.537037        0.05113291907514451        0        
C4        C        0.9687500000000001        0.481481        0.05113291907514451        0        
C1        C        0.9375        0.574075        0.05113291907514451        0        
C2        C        0.9687500000000001        0.62963        0.05113291907514451        0        
C3        C        0.9375        0.648148        0.05113291907514451        0        
C4        C        0.9687500000000001        0.592592        0.05113291907514451        0        
C_FG        C        0.0        0.685186        0.05113291907514451        0.2        
C1        C        0.0625        0.685186        0.05113291907514451        0        
C_FG        C        0.125        0.685186        0.05113291907514451        0.2        
C1        C        0.1875        0.685186        0.05113291907514451        0        
C_FG        C        0.25        0.685186        0.05113291907514451        0.2        
C1        C        0.3125        0.685186        0.05113291907514451        0        
C_FG        C        0.375        0.685186        0.05113291907514451        0.2        
C1        C        0.4375        0.685186        0.05113291907514451        0        
C_FG        C        0.5        0.685186        0.05113291907514451        0.2        
C1        C        0.5625        0.685186        0.05113291907514451        0        
C_FG        C        0.625        0.685186        0.05113291907514451        0.2        
C1        C        0.6875        0.685186        0.05113291907514451        0        
C_FG        C        0.75        0.685186        0.05113291907514451        0.2        
C1        C        0.8125        0.685186        0.05113291907514451        0        
C_FG        C        0.875        0.685186        0.05113291907514451        0.2        
C1        C        0.9375        0.685186        0.05113291907514451        0        
C2        C        0.03125        0.740741        0.05113291907514451        0        
C2        C        0.09375        0.740741        0.05113291907514451        0        
C2        C        0.15625        0.740741        0.05113291907514451        0        
C2        C        0.21875        0.740741        0.05113291907514451        0        
C2        C        0.28125        0.740741        0.05113291907514451        0        
C2        C        0.34375        0.740741        0.05113291907514451        0        
C2        C        0.40625        0.740741        0.05113291907514451        0        
C2        C        0.46875        0.740741        0.05113291907514451        0        
C2        C        0.53125        0.740741        0.05113291907514451        0        
C2        C        0.59375        0.740741        0.05113291907514451        0        
C2        C        0.65625        0.740741        0.05113291907514451        0        
C2        C        0.71875        0.740741        0.05113291907514451        0        
C2        C        0.78125        0.740741        0.05113291907514451        0        
C2        C        0.84375        0.740741        0.05113291907514451        0        
C2        C        0.9062500000000001        0.740741        0.05113291907514451        0        
C2        C        0.9687500000000001        0.740741        0.05113291907514451        0        
C3        C        0.0        0.759259        0.05113291907514451        0        
C3        C        0.0625        0.759259        0.05113291907514451        0        
C3        C        0.125        0.759259        0.05113291907514451        0        
C3        C        0.1875        0.759259        0.05113291907514451        0        
C3        C        0.25        0.759259        0.05113291907514451        0        
C3        C        0.3125        0.759259        0.05113291907514451        0        
C3        C        0.375        0.759259        0.05113291907514451        0        
C3        C        0.4375        0.759259        0.05113291907514451        0        
C3        C        0.5        0.759259        0.05113291907514451        0        
C3        C        0.5625        0.759259        0.05113291907514451        0        
C3        C        0.625        0.759259        0.05113291907514451        0        
C3        C        0.6875        0.759259        0.05113291907514451        0        
C3        C        0.75        0.759259        0.05113291907514451        0        
C3        C        0.8125        0.759259        0.05113291907514451        0        
C3        C        0.875        0.759259        0.05113291907514451        0        
C3        C        0.9375        0.759259        0.05113291907514451        0        
C4        C        0.03125        0.703703        0.05113291907514451        0        
C4        C        0.09375        0.703703        0.05113291907514451        0        
C4        C        0.15625        0.703703        0.05113291907514451        0        
C4        C        0.21875        0.703703        0.05113291907514451        0        
C4        C        0.28125        0.703703        0.05113291907514451        0        
C4        C        0.34375        0.703703        0.05113291907514451        0        
C4        C        0.40625        0.703703        0.05113291907514451        0        
C4        C        0.46875        0.703703        0.05113291907514451        0        
C4        C        0.53125        0.703703        0.05113291907514451        0        
C4        C        0.59375        0.703703        0.05113291907514451        0        
C4        C        0.65625        0.703703        0.05113291907514451        0        
C4        C        0.71875        0.703703        0.05113291907514451        0        
C4        C        0.78125        0.703703        0.05113291907514451        0        
C4        C        0.84375        0.703703        0.05113291907514451        0        
C4        C        0.9062500000000001        0.703703        0.05113291907514451        0        
C4        C        0.9687500000000001        0.703703        0.05113291907514451        0        
C_FG        C        0.0        0.796297        0.05113291907514451        0.2        
C1        C        0.0625        0.796297        0.05113291907514451        0        
C_FG        C        0.125        0.796297        0.05113291907514451        0.2        
C1        C        0.1875        0.796297        0.05113291907514451        0        
C_FG        C        0.25        0.796297        0.05113291907514451        0.2        
C1        C        0.3125        0.796297        0.05113291907514451        0        
C_FG        C        0.375        0.796297        0.05113291907514451        0.2        
C1        C        0.4375        0.796297        0.05113291907514451        0        
C_FG        C        0.5        0.796297        0.05113291907514451        0.2        
C1        C        0.5625        0.796297        0.05113291907514451        0        
C_FG        C        0.625        0.796297        0.05113291907514451        0.2        
C1        C        0.6875        0.796297        0.05113291907514451        0        
C_FG        C        0.75        0.796297        0.05113291907514451        0.2        
C1        C        0.8125        0.796297        0.05113291907514451        0        
C_FG        C        0.875        0.796297        0.05113291907514451        0.2        
C1        C        0.9375        0.796297        0.05113291907514451        0        
C2        C        0.03125        0.851852        0.05113291907514451        0        
C2        C        0.09375        0.851852        0.05113291907514451        0        
C2        C        0.15625        0.851852        0.05113291907514451        0        
C2        C        0.21875        0.851852        0.05113291907514451        0        
C2        C        0.28125        0.851852        0.05113291907514451        0        
C2        C        0.34375        0.851852        0.05113291907514451        0        
C2        C        0.40625        0.851852        0.05113291907514451        0        
C2        C        0.46875        0.851852        0.05113291907514451        0        
C2        C        0.53125        0.851852        0.05113291907514451        0        
C2        C        0.59375        0.851852        0.05113291907514451        0        
C2        C        0.65625        0.851852        0.05113291907514451        0        
C2        C        0.71875        0.851852        0.05113291907514451        0        
C2        C        0.78125        0.851852        0.05113291907514451        0        
C2        C        0.84375        0.851852        0.05113291907514451        0        
C2        C        0.9062500000000001        0.851852        0.05113291907514451        0        
C2        C        0.9687500000000001        0.851852        0.05113291907514451        0        
C3        C        0.0        0.87037        0.05113291907514451        0        
C3        C        0.0625        0.87037        0.05113291907514451        0        
C3        C        0.125        0.87037        0.05113291907514451        0        
C3        C        0.1875        0.87037        0.05113291907514451        0        
C3        C        0.25        0.87037        0.05113291907514451        0        
C3        C        0.3125        0.87037        0.05113291907514451        0        
C3        C        0.375        0.87037        0.05113291907514451        0        
C3        C        0.4375        0.87037        0.05113291907514451        0        
C3        C        0.5        0.87037        0.05113291907514451        0        
C3        C        0.5625        0.87037        0.05113291907514451        0        
C3        C        0.625        0.87037        0.05113291907514451        0        
C3        C        0.6875        0.87037        0.05113291907514451        0        
C3        C        0.75        0.87037        0.05113291907514451        0        
C3        C        0.8125        0.87037        0.05113291907514451        0        
C3        C        0.875        0.87037        0.05113291907514451        0        
C3        C        0.9375        0.87037        0.05113291907514451        0        
C4        C        0.03125        0.814814        0.05113291907514451        0        
C4        C        0.09375        0.814814        0.05113291907514451        0        
C4        C        0.15625        0.814814        0.05113291907514451        0        
C4        C        0.21875        0.814814        0.05113291907514451        0        
C4        C        0.28125        0.814814        0.05113291907514451        0        
C4        C        0.34375        0.814814        0.05113291907514451        0        
C4        C        0.40625        0.814814        0.05113291907514451        0        
C4        C        0.46875        0.814814        0.05113291907514451        0        
C4        C        0.53125        0.814814        0.05113291907514451        0        
C4        C        0.59375        0.814814        0.05113291907514451        0        
C4        C        0.65625        0.814814        0.05113291907514451        0        
C4        C        0.71875        0.814814        0.05113291907514451        0        
C4        C        0.78125        0.814814        0.05113291907514451        0        
C4        C        0.84375        0.814814        0.05113291907514451        0        
C4        C        0.9062500000000001        0.814814        0.05113291907514451        0        
C4        C        0.9687500000000001        0.814814        0.05113291907514451        0        
C_FG        C        0.0        0.907408        0.05113291907514451        0.2        
C1        C        0.0625        0.907408        0.05113291907514451        0        
C_FG        C        0.125        0.907408        0.05113291907514451        0.2        
C1        C        0.1875        0.907408        0.05113291907514451        0        
C_FG        C        0.25        0.907408        0.05113291907514451        0.2        
C1        C        0.3125        0.907408        0.05113291907514451        0        
C_FG        C        0.375        0.907408        0.05113291907514451        0.2        
C1        C        0.4375        0.907408        0.05113291907514451        0        
C_FG        C        0.5        0.907408        0.05113291907514451        0.2        
C1        C        0.5625        0.907408        0.05113291907514451        0        
C_FG        C        0.625        0.907408        0.05113291907514451        0.2        
C1        C        0.6875        0.907408        0.05113291907514451        0        
C_FG        C        0.75        0.907408        0.05113291907514451        0.2        
C1        C        0.8125        0.907408        0.05113291907514451        0        
C_FG        C        0.875        0.907408        0.05113291907514451        0.2        
C1        C        0.9375        0.907408        0.05113291907514451        0        
C2        C        0.03125        0.962963        0.05113291907514451        0        
C2        C        0.09375        0.962963        0.05113291907514451        0        
C2        C        0.15625        0.962963        0.05113291907514451        0        
C2        C        0.21875        0.962963        0.05113291907514451        0        
C2        C        0.28125        0.962963        0.05113291907514451        0        
C2        C        0.34375        0.962963        0.05113291907514451        0        
C2        C        0.40625        0.962963        0.05113291907514451        0        
C2        C        0.46875        0.962963        0.05113291907514451        0        
C2        C        0.53125        0.962963        0.05113291907514451        0        
C2        C        0.59375        0.962963        0.05113291907514451        0        
C2        C        0.65625        0.962963        0.05113291907514451        0        
C2        C        0.71875        0.962963        0.05113291907514451        0        
C2        C        0.78125        0.962963        0.05113291907514451        0        
C2        C        0.84375        0.962963        0.05113291907514451        0        
C2        C        0.9062500000000001        0.962963        0.05113291907514451        0        
C2        C        0.9687500000000001        0.962963        0.05113291907514451        0        
C3        C        0.0        0.9814809999999999        0.05113291907514451        0        
C3        C        0.0625        0.9814809999999999        0.05113291907514451        0        
C3        C        0.125        0.9814809999999999        0.05113291907514451        0        
C3        C        0.1875        0.9814809999999999        0.05113291907514451        0        
C3        C        0.25        0.9814809999999999        0.05113291907514451        0        
C3        C        0.3125        0.9814809999999999        0.05113291907514451        0        
C3        C        0.375        0.9814809999999999        0.05113291907514451        0        
C3        C        0.4375        0.9814809999999999        0.05113291907514451        0        
C3        C        0.5        0.9814809999999999        0.05113291907514451        0        
C3        C        0.5625        0.9814809999999999        0.05113291907514451        0        
C3        C        0.625        0.9814809999999999        0.05113291907514451        0        
C3        C        0.6875        0.9814809999999999        0.05113291907514451        0        
C3        C        0.75        0.9814809999999999        0.05113291907514451        0        
C3        C        0.8125        0.9814809999999999        0.05113291907514451        0        
C3        C        0.875        0.9814809999999999        0.05113291907514451        0        
C3        C        0.9375        0.9814809999999999        0.05113291907514451        0        
C4        C        0.03125        0.925925        0.05113291907514451        0        
C4        C        0.09375        0.925925        0.05113291907514451        0        
C4        C        0.15625        0.925925        0.05113291907514451        0        
C4        C        0.21875        0.925925        0.05113291907514451        0        
C4        C        0.28125        0.925925        0.05113291907514451        0        
C4        C        0.34375        0.925925        0.05113291907514451        0        
C4        C        0.40625        0.925925        0.05113291907514451        0        
C4        C        0.46875        0.925925        0.05113291907514451        0        
C4        C        0.53125        0.925925        0.05113291907514451        0        
C4        C        0.59375        0.925925        0.05113291907514451        0        
C4        C        0.65625        0.925925        0.05113291907514451        0        
C4        C        0.71875        0.925925        0.05113291907514451        0        
C4        C        0.78125        0.925925        0.05113291907514451        0        
C4        C        0.84375        0.925925        0.05113291907514451        0        
C4        C        0.9062500000000001        0.925925        0.05113291907514451        0        
C4        C        0.9687500000000001        0.925925        0.05113291907514451        0        
C1        C        0.0        0.018519        0.14795391907514452        0        
C2        C        0.03125        0.074075        0.14795391907514452        0        
C3        C        0.0        0.092592        0.14795391907514452        0        
C4        C        0.03125        0.037037        0.14795391907514452        0        
C1        C        0.0        0.12963        0.14795391907514452        0        
C2        C        0.03125        0.185185        0.14795391907514452        0        
C3        C        0.0        0.203703        0.14795391907514452        0        
C4        C        0.03125        0.148148        0.14795391907514452        0        
C1        C        0.0        0.24074099999999998        0.14795391907514452        0        
C2        C        0.03125        0.296297        0.14795391907514452        0        
C3        C        0.0        0.314815        0.14795391907514452        0        
C4        C        0.03125        0.259259        0.14795391907514452        0        
C1        C        0.0        0.351852        0.14795391907514452        0        
C2        C        0.03125        0.407408        0.14795391907514452        0        
C3        C        0.0        0.42592500000000005        0.14795391907514452        0        
C4        C        0.03125        0.37037        0.14795391907514452        0        
C1        C        0.0        0.46296300000000007        0.14795391907514452        0        
C2        C        0.03125        0.518519        0.14795391907514452        0        
C3        C        0.0        0.537037        0.14795391907514452        0        
C4        C        0.03125        0.481481        0.14795391907514452        0        
C1        C        0.0        0.574075        0.14795391907514452        0        
C2        C        0.03125        0.62963        0.14795391907514452        0        
C3        C        0.0        0.648148        0.14795391907514452        0        
C4        C        0.03125        0.592592        0.14795391907514452        0        
C1        C        0.0625        0.018519        0.14795391907514452        0        
C2        C        0.09375        0.074075        0.14795391907514452        0        
C3        C        0.0625        0.092592        0.14795391907514452        0        
C4        C        0.09375        0.037037        0.14795391907514452        0        
C1        C        0.0625        0.12963        0.14795391907514452        0        
C2        C        0.09375        0.185185        0.14795391907514452        0        
C3        C        0.0625        0.203703        0.14795391907514452        0        
C4        C        0.09375        0.148148        0.14795391907514452        0        
C1        C        0.0625        0.24074099999999998        0.14795391907514452        0        
C2        C        0.09375        0.296297        0.14795391907514452        0        
C3        C        0.0625        0.314815        0.14795391907514452        0        
C4        C        0.09375        0.259259        0.14795391907514452        0        
C1        C        0.0625        0.351852        0.14795391907514452        0        
C2        C        0.09375        0.407408        0.14795391907514452        0        
C3        C        0.0625        0.42592500000000005        0.14795391907514452        0        
C4        C        0.09375        0.37037        0.14795391907514452        0        
C1        C        0.0625        0.46296300000000007        0.14795391907514452        0        
C2        C        0.09375        0.518519        0.14795391907514452        0        
C3        C        0.0625        0.537037        0.14795391907514452        0        
C4        C        0.09375        0.481481        0.14795391907514452        0        
C1        C        0.0625        0.574075        0.14795391907514452        0        
C2        C        0.09375        0.62963        0.14795391907514452        0        
C3        C        0.0625        0.648148        0.14795391907514452        0        
C4        C        0.09375        0.592592        0.14795391907514452        0        
C1        C        0.125        0.018519        0.14795391907514452        0        
C2        C        0.15625        0.074075        0.14795391907514452        0        
C3        C        0.125        0.092592        0.14795391907514452        0        
C4        C        0.15625        0.037037        0.14795391907514452        0        
C1        C        0.125        0.12963        0.14795391907514452        0        
C2        C        0.15625        0.185185        0.14795391907514452        0        
C3        C        0.125        0.203703        0.14795391907514452        0        
C4        C        0.15625        0.148148        0.14795391907514452        0        
C1        C        0.125        0.24074099999999998        0.14795391907514452        0        
C2        C        0.15625        0.296297        0.14795391907514452        0        
C3        C        0.125        0.314815        0.14795391907514452        0        
C4        C        0.15625        0.259259        0.14795391907514452        0        
C1        C        0.125        0.351852        0.14795391907514452        0        
C2        C        0.15625        0.407408        0.14795391907514452        0        
C3        C        0.125        0.42592500000000005        0.14795391907514452        0        
C4        C        0.15625        0.37037        0.14795391907514452        0        
C1        C        0.125        0.46296300000000007        0.14795391907514452        0        
C2        C        0.15625        0.518519        0.14795391907514452        0        
C3        C        0.125        0.537037        0.14795391907514452        0        
C4        C        0.15625        0.481481        0.14795391907514452        0        
C1        C        0.125        0.574075        0.14795391907514452        0        
C2        C        0.15625        0.62963        0.14795391907514452        0        
C3        C        0.125        0.648148        0.14795391907514452        0        
C4        C        0.15625        0.592592        0.14795391907514452        0        
C1        C        0.1875        0.018519        0.14795391907514452        0        
C2        C        0.21875        0.074075        0.14795391907514452        0        
C3        C        0.1875        0.092592        0.14795391907514452        0        
C4        C        0.21875        0.037037        0.14795391907514452        0        
C1        C        0.1875        0.12963        0.14795391907514452        0        
C2        C        0.21875        0.185185        0.14795391907514452        0        
C3        C        0.1875        0.203703        0.14795391907514452        0        
C4        C        0.21875        0.148148        0.14795391907514452        0        
C1        C        0.1875        0.24074099999999998        0.14795391907514452        0        
C2        C        0.21875        0.296297        0.14795391907514452        0        
C3        C        0.1875        0.314815        0.14795391907514452        0        
C4        C        0.21875        0.259259        0.14795391907514452        0        
C1        C        0.1875        0.351852        0.14795391907514452        0        
C2        C        0.21875        0.407408        0.14795391907514452        0        
C3        C        0.1875        0.42592500000000005        0.14795391907514452        0        
C4        C        0.21875        0.37037        0.14795391907514452        0        
C1        C        0.1875        0.46296300000000007        0.14795391907514452        0        
C2        C        0.21875        0.518519        0.14795391907514452        0        
C3        C        0.1875        0.537037        0.14795391907514452        0        
C4        C        0.21875        0.481481        0.14795391907514452        0        
C1        C        0.1875        0.574075        0.14795391907514452        0        
C2        C        0.21875        0.62963        0.14795391907514452        0        
C3        C        0.1875        0.648148        0.14795391907514452        0        
C4        C        0.21875        0.592592        0.14795391907514452        0        
C1        C        0.25        0.018519        0.14795391907514452        0        
C2        C        0.28125        0.074075        0.14795391907514452        0        
C3        C        0.25        0.092592        0.14795391907514452        0        
C4        C        0.28125        0.037037        0.14795391907514452        0        
C1        C        0.25        0.12963        0.14795391907514452        0        
C2        C        0.28125        0.185185        0.14795391907514452        0        
C3        C        0.25        0.203703        0.14795391907514452        0        
C4        C        0.28125        0.148148        0.14795391907514452        0        
C1        C        0.25        0.24074099999999998        0.14795391907514452        0        
C2        C        0.28125        0.296297        0.14795391907514452        0        
C3        C        0.25        0.314815        0.14795391907514452        0        
C4        C        0.28125        0.259259        0.14795391907514452        0        
C1        C        0.25        0.351852        0.14795391907514452        0        
C2        C        0.28125        0.407408        0.14795391907514452        0        
C3        C        0.25        0.42592500000000005        0.14795391907514452        0        
C4        C        0.28125        0.37037        0.14795391907514452        0        
C1        C        0.25        0.46296300000000007        0.14795391907514452        0        
C2        C        0.28125        0.518519        0.14795391907514452        0        
C3        C        0.25        0.537037        0.14795391907514452        0        
C4        C        0.28125        0.481481        0.14795391907514452        0        
C1        C        0.25        0.574075        0.14795391907514452        0        
C2        C        0.28125        0.62963        0.14795391907514452        0        
C3        C        0.25        0.648148        0.14795391907514452        0        
C4        C        0.28125        0.592592        0.14795391907514452        0        
C1        C        0.3125        0.018519        0.14795391907514452        0        
C2        C        0.34375        0.074075        0.14795391907514452        0        
C3        C        0.3125        0.092592        0.14795391907514452        0        
C4        C        0.34375        0.037037        0.14795391907514452        0        
C1        C        0.3125        0.12963        0.14795391907514452        0        
C2        C        0.34375        0.185185        0.14795391907514452        0        
C3        C        0.3125        0.203703        0.14795391907514452        0        
C4        C        0.34375        0.148148        0.14795391907514452        0        
C1        C        0.3125        0.24074099999999998        0.14795391907514452        0        
C2        C        0.34375        0.296297        0.14795391907514452        0        
C3        C        0.3125        0.314815        0.14795391907514452        0        
C4        C        0.34375        0.259259        0.14795391907514452        0        
C1        C        0.3125        0.351852        0.14795391907514452        0        
C2        C        0.34375        0.407408        0.14795391907514452        0        
C3        C        0.3125        0.42592500000000005        0.14795391907514452        0        
C4        C        0.34375        0.37037        0.14795391907514452        0        
C1        C        0.3125        0.46296300000000007        0.14795391907514452        0        
C2        C        0.34375        0.518519        0.14795391907514452        0        
C3        C        0.3125        0.537037        0.14795391907514452        0        
C4        C        0.34375        0.481481        0.14795391907514452        0        
C1        C        0.3125        0.574075        0.14795391907514452        0        
C2        C        0.34375        0.62963        0.14795391907514452        0        
C3        C        0.3125        0.648148        0.14795391907514452        0        
C4        C        0.34375        0.592592        0.14795391907514452        0        
C1        C        0.375        0.018519        0.14795391907514452        0        
C2        C        0.40625        0.074075        0.14795391907514452        0        
C3        C        0.375        0.092592        0.14795391907514452        0        
C4        C        0.40625        0.037037        0.14795391907514452        0        
C1        C        0.375        0.12963        0.14795391907514452        0        
C2        C        0.40625        0.185185        0.14795391907514452        0        
C3        C        0.375        0.203703        0.14795391907514452        0        
C4        C        0.40625        0.148148        0.14795391907514452        0        
C1        C        0.375        0.24074099999999998        0.14795391907514452        0        
C2        C        0.40625        0.296297        0.14795391907514452        0        
C3        C        0.375        0.314815        0.14795391907514452        0        
C4        C        0.40625        0.259259        0.14795391907514452        0        
C1        C        0.375        0.351852        0.14795391907514452        0        
C2        C        0.40625        0.407408        0.14795391907514452        0        
C3        C        0.375        0.42592500000000005        0.14795391907514452        0        
C4        C        0.40625        0.37037        0.14795391907514452        0        
C1        C        0.375        0.46296300000000007        0.14795391907514452        0        
C2        C        0.40625        0.518519        0.14795391907514452        0        
C3        C        0.375        0.537037        0.14795391907514452        0        
C4        C        0.40625        0.481481        0.14795391907514452        0        
C1        C        0.375        0.574075        0.14795391907514452        0        
C2        C        0.40625        0.62963        0.14795391907514452        0        
C3        C        0.375        0.648148        0.14795391907514452        0        
C4        C        0.40625        0.592592        0.14795391907514452        0        
C1        C        0.4375        0.018519        0.14795391907514452        0        
C2        C        0.46875        0.074075        0.14795391907514452        0        
C3        C        0.4375        0.092592        0.14795391907514452        0        
C4        C        0.46875        0.037037        0.14795391907514452        0        
C1        C        0.4375        0.12963        0.14795391907514452        0        
C2        C        0.46875        0.185185        0.14795391907514452        0        
C3        C        0.4375        0.203703        0.14795391907514452        0        
C4        C        0.46875        0.148148        0.14795391907514452        0        
C1        C        0.4375        0.24074099999999998        0.14795391907514452        0        
C2        C        0.46875        0.296297        0.14795391907514452        0        
C3        C        0.4375        0.314815        0.14795391907514452        0        
C4        C        0.46875        0.259259        0.14795391907514452        0        
C1        C        0.4375        0.351852        0.14795391907514452        0        
C2        C        0.46875        0.407408        0.14795391907514452        0        
C3        C        0.4375        0.42592500000000005        0.14795391907514452        0        
C4        C        0.46875        0.37037        0.14795391907514452        0        
C1        C        0.4375        0.46296300000000007        0.14795391907514452        0        
C2        C        0.46875        0.518519        0.14795391907514452        0        
C3        C        0.4375        0.537037        0.14795391907514452        0        
C4        C        0.46875        0.481481        0.14795391907514452        0        
C1        C        0.4375        0.574075        0.14795391907514452        0        
C2        C        0.46875        0.62963        0.14795391907514452        0        
C3        C        0.4375        0.648148        0.14795391907514452        0        
C4        C        0.46875        0.592592        0.14795391907514452        0        
C1        C        0.5        0.018519        0.14795391907514452        0        
C2        C        0.53125        0.074075        0.14795391907514452        0        
C3        C        0.5        0.092592        0.14795391907514452        0        
C4        C        0.53125        0.037037        0.14795391907514452        0        
C1        C        0.5        0.12963        0.14795391907514452        0        
C2        C        0.53125        0.185185        0.14795391907514452        0        
C3        C        0.5        0.203703        0.14795391907514452        0        
C4        C        0.53125        0.148148        0.14795391907514452        0        
C1        C        0.5        0.24074099999999998        0.14795391907514452        0        
C2        C        0.53125        0.296297        0.14795391907514452        0        
C3        C        0.5        0.314815        0.14795391907514452        0        
C4        C        0.53125        0.259259        0.14795391907514452        0        
C1        C        0.5        0.351852        0.14795391907514452        0        
C2        C        0.53125        0.407408        0.14795391907514452        0        
C3        C        0.5        0.42592500000000005        0.14795391907514452        0        
C4        C        0.53125        0.37037        0.14795391907514452        0        
C1        C        0.5        0.46296300000000007        0.14795391907514452        0        
C2        C        0.53125        0.518519        0.14795391907514452        0        
C3        C        0.5        0.537037        0.14795391907514452        0        
C4        C        0.53125        0.481481        0.14795391907514452        0        
C1        C        0.5        0.574075        0.14795391907514452        0        
C2        C        0.53125        0.62963        0.14795391907514452        0        
C3        C        0.5        0.648148        0.14795391907514452        0        
C4        C        0.53125        0.592592        0.14795391907514452        0        
C1        C        0.5625        0.018519        0.14795391907514452        0        
C2        C        0.59375        0.074075        0.14795391907514452        0        
C3        C        0.5625        0.092592        0.14795391907514452        0        
C4        C        0.59375        0.037037        0.14795391907514452        0        
C1        C        0.5625        0.12963        0.14795391907514452        0        
C2        C        0.59375        0.185185        0.14795391907514452        0        
C3        C        0.5625        0.203703        0.14795391907514452        0        
C4        C        0.59375        0.148148        0.14795391907514452        0        
C1        C        0.5625        0.24074099999999998        0.14795391907514452        0        
C2        C        0.59375        0.296297        0.14795391907514452        0        
C3        C        0.5625        0.314815        0.14795391907514452        0        
C4        C        0.59375        0.259259        0.14795391907514452        0        
C1        C        0.5625        0.351852        0.14795391907514452        0        
C2        C        0.59375        0.407408        0.14795391907514452        0        
C3        C        0.5625        0.42592500000000005        0.14795391907514452        0        
C4        C        0.59375        0.37037        0.14795391907514452        0        
C1        C        0.5625        0.46296300000000007        0.14795391907514452        0        
C2        C        0.59375        0.518519        0.14795391907514452        0        
C3        C        0.5625        0.537037        0.14795391907514452        0        
C4        C        0.59375        0.481481        0.14795391907514452        0        
C1        C        0.5625        0.574075        0.14795391907514452        0        
C2        C        0.59375        0.62963        0.14795391907514452        0        
C3        C        0.5625        0.648148        0.14795391907514452        0        
C4        C        0.59375        0.592592        0.14795391907514452        0        
C1        C        0.625        0.018519        0.14795391907514452        0        
C2        C        0.65625        0.074075        0.14795391907514452        0        
C3        C        0.625        0.092592        0.14795391907514452        0        
C4        C        0.65625        0.037037        0.14795391907514452        0        
C1        C        0.625        0.12963        0.14795391907514452        0        
C2        C        0.65625        0.185185        0.14795391907514452        0        
C3        C        0.625        0.203703        0.14795391907514452        0        
C4        C        0.65625        0.148148        0.14795391907514452        0        
C1        C        0.625        0.24074099999999998        0.14795391907514452        0        
C2        C        0.65625        0.296297        0.14795391907514452        0        
C3        C        0.625        0.314815        0.14795391907514452        0        
C4        C        0.65625        0.259259        0.14795391907514452        0        
C1        C        0.625        0.351852        0.14795391907514452        0        
C2        C        0.65625        0.407408        0.14795391907514452        0        
C3        C        0.625        0.42592500000000005        0.14795391907514452        0        
C4        C        0.65625        0.37037        0.14795391907514452        0        
C1        C        0.625        0.46296300000000007        0.14795391907514452        0        
C2        C        0.65625        0.518519        0.14795391907514452        0        
C3        C        0.625        0.537037        0.14795391907514452        0        
C4        C        0.65625        0.481481        0.14795391907514452        0        
C1        C        0.625        0.574075        0.14795391907514452        0        
C2        C        0.65625        0.62963        0.14795391907514452        0        
C3        C        0.625        0.648148        0.14795391907514452        0        
C4        C        0.65625        0.592592        0.14795391907514452        0        
C1        C        0.6875        0.018519        0.14795391907514452        0        
C2        C        0.71875        0.074075        0.14795391907514452        0        
C3        C        0.6875        0.092592        0.14795391907514452        0        
C4        C        0.71875        0.037037        0.14795391907514452        0        
C1        C        0.6875        0.12963        0.14795391907514452        0        
C2        C        0.71875        0.185185        0.14795391907514452        0        
C3        C        0.6875        0.203703        0.14795391907514452        0        
C4        C        0.71875        0.148148        0.14795391907514452        0        
C1        C        0.6875        0.24074099999999998        0.14795391907514452        0        
C2        C        0.71875        0.296297        0.14795391907514452        0        
C3        C        0.6875        0.314815        0.14795391907514452        0        
C4        C        0.71875        0.259259        0.14795391907514452        0        
C1        C        0.6875        0.351852        0.14795391907514452        0        
C2        C        0.71875        0.407408        0.14795391907514452        0        
C3        C        0.6875        0.42592500000000005        0.14795391907514452        0        
C4        C        0.71875        0.37037        0.14795391907514452        0        
C1        C        0.6875        0.46296300000000007        0.14795391907514452        0        
C2        C        0.71875        0.518519        0.14795391907514452        0        
C3        C        0.6875        0.537037        0.14795391907514452        0        
C4        C        0.71875        0.481481        0.14795391907514452        0        
C1        C        0.6875        0.574075        0.14795391907514452        0        
C2        C        0.71875        0.62963        0.14795391907514452        0        
C3        C        0.6875        0.648148        0.14795391907514452        0        
C4        C        0.71875        0.592592        0.14795391907514452        0        
C1        C        0.75        0.018519        0.14795391907514452        0        
C2        C        0.78125        0.074075        0.14795391907514452        0        
C3        C        0.75        0.092592        0.14795391907514452        0        
C4        C        0.78125        0.037037        0.14795391907514452        0        
C1        C        0.75        0.12963        0.14795391907514452        0        
C2        C        0.78125        0.185185        0.14795391907514452        0        
C3        C        0.75        0.203703        0.14795391907514452        0        
C4        C        0.78125        0.148148        0.14795391907514452        0        
C1        C        0.75        0.24074099999999998        0.14795391907514452        0        
C2        C        0.78125        0.296297        0.14795391907514452        0        
C3        C        0.75        0.314815        0.14795391907514452        0        
C4        C        0.78125        0.259259        0.14795391907514452        0        
C1        C        0.75        0.351852        0.14795391907514452        0        
C2        C        0.78125        0.407408        0.14795391907514452        0        
C3        C        0.75        0.42592500000000005        0.14795391907514452        0        
C4        C        0.78125        0.37037        0.14795391907514452        0        
C1        C        0.75        0.46296300000000007        0.14795391907514452        0        
C2        C        0.78125        0.518519        0.14795391907514452        0        
C3        C        0.75        0.537037        0.14795391907514452        0        
C4        C        0.78125        0.481481        0.14795391907514452        0        
C1        C        0.75        0.574075        0.14795391907514452        0        
C2        C        0.78125        0.62963        0.14795391907514452        0        
C3        C        0.75        0.648148        0.14795391907514452        0        
C4        C        0.78125        0.592592        0.14795391907514452        0        
C1        C        0.8125        0.018519        0.14795391907514452        0        
C2        C        0.84375        0.074075        0.14795391907514452        0        
C3        C        0.8125        0.092592        0.14795391907514452        0        
C4        C        0.84375        0.037037        0.14795391907514452        0        
C1        C        0.8125        0.12963        0.14795391907514452        0        
C2        C        0.84375        0.185185        0.14795391907514452        0        
C3        C        0.8125        0.203703        0.14795391907514452        0        
C4        C        0.84375        0.148148        0.14795391907514452        0        
C1        C        0.8125        0.24074099999999998        0.14795391907514452        0        
C2        C        0.84375        0.296297        0.14795391907514452        0        
C3        C        0.8125        0.314815        0.14795391907514452        0        
C4        C        0.84375        0.259259        0.14795391907514452        0        
C1        C        0.8125        0.351852        0.14795391907514452        0        
C2        C        0.84375        0.407408        0.14795391907514452        0        
C3        C        0.8125        0.42592500000000005        0.14795391907514452        0        
C4        C        0.84375        0.37037        0.14795391907514452        0        
C1        C        0.8125        0.46296300000000007        0.14795391907514452        0        
C2        C        0.84375        0.518519        0.14795391907514452        0        
C3        C        0.8125        0.537037        0.14795391907514452        0        
C4        C        0.84375        0.481481        0.14795391907514452        0        
C1        C        0.8125        0.574075        0.14795391907514452        0        
C2        C        0.84375        0.62963        0.14795391907514452        0        
C3        C        0.8125        0.648148        0.14795391907514452        0        
C4        C        0.84375        0.592592        0.14795391907514452        0        
C1        C        0.875        0.018519        0.14795391907514452        0        
C2        C        0.9062500000000001        0.074075        0.14795391907514452        0        
C3        C        0.875        0.092592        0.14795391907514452        0        
C4        C        0.9062500000000001        0.037037        0.14795391907514452        0        
C1        C        0.875        0.12963        0.14795391907514452        0        
C2        C        0.9062500000000001        0.185185        0.14795391907514452        0        
C3        C        0.875        0.203703        0.14795391907514452        0        
C4        C        0.9062500000000001        0.148148        0.14795391907514452        0        
C1        C        0.875        0.24074099999999998        0.14795391907514452        0        
C2        C        0.9062500000000001        0.296297        0.14795391907514452        0        
C3        C        0.875        0.314815        0.14795391907514452        0        
C4        C        0.9062500000000001        0.259259        0.14795391907514452        0        
C1        C        0.875        0.351852        0.14795391907514452        0        
C2        C        0.9062500000000001        0.407408        0.14795391907514452        0        
C3        C        0.875        0.42592500000000005        0.14795391907514452        0        
C4        C        0.9062500000000001        0.37037        0.14795391907514452        0        
C1        C        0.875        0.46296300000000007        0.14795391907514452        0        
C2        C        0.9062500000000001        0.518519        0.14795391907514452        0        
C3        C        0.875        0.537037        0.14795391907514452        0        
C4        C        0.9062500000000001        0.481481        0.14795391907514452        0        
C1        C        0.875        0.574075        0.14795391907514452        0        
C2        C        0.9062500000000001        0.62963        0.14795391907514452        0        
C3        C        0.875        0.648148        0.14795391907514452        0        
C4        C        0.9062500000000001        0.592592        0.14795391907514452        0        
C1        C        0.9375        0.018519        0.14795391907514452        0        
C2        C        0.9687500000000001        0.074075        0.14795391907514452        0        
C3        C        0.9375        0.092592        0.14795391907514452        0        
C4        C        0.9687500000000001        0.037037        0.14795391907514452        0        
C1        C        0.9375        0.12963        0.14795391907514452        0        
C2        C        0.9687500000000001        0.185185        0.14795391907514452        0        
C3        C        0.9375        0.203703        0.14795391907514452        0        
C4        C        0.9687500000000001        0.148148        0.14795391907514452        0        
C1        C        0.9375        0.24074099999999998        0.14795391907514452        0        
C2        C        0.9687500000000001        0.296297        0.14795391907514452        0        
C3        C        0.9375        0.314815        0.14795391907514452        0        
C4        C        0.9687500000000001        0.259259        0.14795391907514452        0        
C1        C        0.9375        0.351852        0.14795391907514452        0        
C2        C        0.9687500000000001        0.407408        0.14795391907514452        0        
C3        C        0.9375        0.42592500000000005        0.14795391907514452        0        
C4        C        0.9687500000000001        0.37037        0.14795391907514452        0        
C1        C        0.9375        0.46296300000000007        0.14795391907514452        0        
C2        C        0.9687500000000001        0.518519        0.14795391907514452        0        
C3        C        0.9375        0.537037        0.14795391907514452        0        
C4        C        0.9687500000000001        0.481481        0.14795391907514452        0        
C1        C        0.9375        0.574075        0.14795391907514452        0        
C2        C        0.9687500000000001        0.62963        0.14795391907514452        0        
C3        C        0.9375        0.648148        0.14795391907514452        0        
C4        C        0.9687500000000001        0.592592        0.14795391907514452        0        
C1        C        0.0        0.685186        0.14795391907514452        0        
C1        C        0.0625        0.685186        0.14795391907514452        0        
C1        C        0.125        0.685186        0.14795391907514452        0        
C1        C        0.1875        0.685186        0.14795391907514452        0        
C1        C        0.25        0.685186        0.14795391907514452        0        
C1        C        0.3125        0.685186        0.14795391907514452        0        
C1        C        0.375        0.685186        0.14795391907514452        0        
C1        C        0.4375        0.685186        0.14795391907514452        0        
C1        C        0.5        0.685186        0.14795391907514452        0        
C1        C        0.5625        0.685186        0.14795391907514452        0        
C1        C        0.625        0.685186        0.14795391907514452        0        
C1        C        0.6875        0.685186        0.14795391907514452        0        
C1        C        0.75        0.685186        0.14795391907514452        0        
C1        C        0.8125        0.685186        0.14795391907514452        0        
C1        C        0.875        0.685186        0.14795391907514452        0        
C1        C        0.9375        0.685186        0.14795391907514452        0        
C2        C        0.03125        0.740741        0.14795391907514452        0        
C2        C        0.09375        0.740741        0.14795391907514452        0        
C2        C        0.15625        0.740741        0.14795391907514452        0        
C2        C        0.21875        0.740741        0.14795391907514452        0        
C2        C        0.28125        0.740741        0.14795391907514452        0        
C2        C        0.34375        0.740741        0.14795391907514452        0        
C2        C        0.40625        0.740741        0.14795391907514452        0        
C2        C        0.46875        0.740741        0.14795391907514452        0        
C2        C        0.53125        0.740741        0.14795391907514452        0        
C2        C        0.59375        0.740741        0.14795391907514452        0        
C2        C        0.65625        0.740741        0.14795391907514452        0        
C2        C        0.71875        0.740741        0.14795391907514452        0        
C2        C        0.78125        0.740741        0.14795391907514452        0        
C2        C        0.84375        0.740741        0.14795391907514452        0        
C2        C        0.9062500000000001        0.740741        0.14795391907514452        0        
C2        C        0.9687500000000001        0.740741        0.14795391907514452        0        
C3        C        0.0        0.759259        0.14795391907514452        0        
C3        C        0.0625        0.759259        0.14795391907514452        0        
C3        C        0.125        0.759259        0.14795391907514452        0        
C3        C        0.1875        0.759259        0.14795391907514452        0        
C3        C        0.25        0.759259        0.14795391907514452        0        
C3        C        0.3125        0.759259        0.14795391907514452        0        
C3        C        0.375        0.759259        0.14795391907514452        0        
C3        C        0.4375        0.759259        0.14795391907514452        0        
C3        C        0.5        0.759259        0.14795391907514452        0        
C3        C        0.5625        0.759259        0.14795391907514452        0        
C3        C        0.625        0.759259        0.14795391907514452        0        
C3        C        0.6875        0.759259        0.14795391907514452        0        
C3        C        0.75        0.759259        0.14795391907514452        0        
C3        C        0.8125        0.759259        0.14795391907514452        0        
C3        C        0.875        0.759259        0.14795391907514452        0        
C3        C        0.9375        0.759259        0.14795391907514452        0        
C4        C        0.03125        0.703703        0.14795391907514452        0        
C4        C        0.09375        0.703703        0.14795391907514452        0        
C4        C        0.15625        0.703703        0.14795391907514452        0        
C4        C        0.21875        0.703703        0.14795391907514452        0        
C4        C        0.28125        0.703703        0.14795391907514452        0        
C4        C        0.34375        0.703703        0.14795391907514452        0        
C4        C        0.40625        0.703703        0.14795391907514452        0        
C4        C        0.46875        0.703703        0.14795391907514452        0        
C4        C        0.53125        0.703703        0.14795391907514452        0        
C4        C        0.59375        0.703703        0.14795391907514452        0        
C4        C        0.65625        0.703703        0.14795391907514452        0        
C4        C        0.71875        0.703703        0.14795391907514452        0        
C4        C        0.78125        0.703703        0.14795391907514452        0        
C4        C        0.84375        0.703703        0.14795391907514452        0        
C4        C        0.9062500000000001        0.703703        0.14795391907514452        0        
C4        C        0.9687500000000001        0.703703        0.14795391907514452        0        
C1        C        0.0        0.796297        0.14795391907514452        0        
C1        C        0.0625        0.796297        0.14795391907514452        0        
C1        C        0.125        0.796297        0.14795391907514452        0        
C1        C        0.1875        0.796297        0.14795391907514452        0        
C1        C        0.25        0.796297        0.14795391907514452        0        
C1        C        0.3125        0.796297        0.14795391907514452        0        
C1        C        0.375        0.796297        0.14795391907514452        0        
C1        C        0.4375        0.796297        0.14795391907514452        0        
C1        C        0.5        0.796297        0.14795391907514452        0        
C1        C        0.5625        0.796297        0.14795391907514452        0        
C1        C        0.625        0.796297        0.14795391907514452        0        
C1        C        0.6875        0.796297        0.14795391907514452        0        
C1        C        0.75        0.796297        0.14795391907514452        0        
C1        C        0.8125        0.796297        0.14795391907514452        0        
C1        C        0.875        0.796297        0.14795391907514452        0        
C1        C        0.9375        0.796297        0.14795391907514452        0        
C2        C        0.03125        0.851852        0.14795391907514452        0        
C2        C        0.09375        0.851852        0.14795391907514452        0        
C2        C        0.15625        0.851852        0.14795391907514452        0        
C2        C        0.21875        0.851852        0.14795391907514452        0        
C2        C        0.28125        0.851852        0.14795391907514452        0        
C2        C        0.34375        0.851852        0.14795391907514452        0        
C2        C        0.40625        0.851852        0.14795391907514452        0        
C2        C        0.46875        0.851852        0.14795391907514452        0        
C2        C        0.53125        0.851852        0.14795391907514452        0        
C2        C        0.59375        0.851852        0.14795391907514452        0        
C2        C        0.65625        0.851852        0.14795391907514452        0        
C2        C        0.71875        0.851852        0.14795391907514452        0        
C2        C        0.78125        0.851852        0.14795391907514452        0        
C2        C        0.84375        0.851852        0.14795391907514452        0        
C2        C        0.9062500000000001        0.851852        0.14795391907514452        0        
C2        C        0.9687500000000001        0.851852        0.14795391907514452        0        
C3        C        0.0        0.87037        0.14795391907514452        0        
C3        C        0.0625        0.87037        0.14795391907514452        0        
C3        C        0.125        0.87037        0.14795391907514452        0        
C3        C        0.1875        0.87037        0.14795391907514452        0        
C3        C        0.25        0.87037        0.14795391907514452        0        
C3        C        0.3125        0.87037        0.14795391907514452        0        
C3        C        0.375        0.87037        0.14795391907514452        0        
C3        C        0.4375        0.87037        0.14795391907514452        0        
C3        C        0.5        0.87037        0.14795391907514452        0        
C3        C        0.5625        0.87037        0.14795391907514452        0        
C3        C        0.625        0.87037        0.14795391907514452        0        
C3        C        0.6875        0.87037        0.14795391907514452        0        
C3        C        0.75        0.87037        0.14795391907514452        0        
C3        C        0.8125        0.87037        0.14795391907514452        0        
C3        C        0.875        0.87037        0.14795391907514452        0        
C3        C        0.9375        0.87037        0.14795391907514452        0        
C4        C        0.03125        0.814814        0.14795391907514452        0        
C4        C        0.09375        0.814814        0.14795391907514452        0        
C4        C        0.15625        0.814814        0.14795391907514452        0        
C4        C        0.21875        0.814814        0.14795391907514452        0        
C4        C        0.28125        0.814814        0.14795391907514452        0        
C4        C        0.34375        0.814814        0.14795391907514452        0        
C4        C        0.40625        0.814814        0.14795391907514452        0        
C4        C        0.46875        0.814814        0.14795391907514452        0        
C4        C        0.53125        0.814814        0.14795391907514452        0        
C4        C        0.59375        0.814814        0.14795391907514452        0        
C4        C        0.65625        0.814814        0.14795391907514452        0        
C4        C        0.71875        0.814814        0.14795391907514452        0        
C4        C        0.78125        0.814814        0.14795391907514452        0        
C4        C        0.84375        0.814814        0.14795391907514452        0        
C4        C        0.9062500000000001        0.814814        0.14795391907514452        0        
C4        C        0.9687500000000001        0.814814        0.14795391907514452        0        
C1        C        0.0        0.907408        0.14795391907514452        0        
C1        C        0.0625        0.907408        0.14795391907514452        0        
C1        C        0.125        0.907408        0.14795391907514452        0        
C1        C        0.1875        0.907408        0.14795391907514452        0        
C1        C        0.25        0.907408        0.14795391907514452        0        
C1        C        0.3125        0.907408        0.14795391907514452        0        
C1        C        0.375        0.907408        0.14795391907514452        0        
C1        C        0.4375        0.907408        0.14795391907514452        0        
C1        C        0.5        0.907408        0.14795391907514452        0        
C1        C        0.5625        0.907408        0.14795391907514452        0        
C1        C        0.625        0.907408        0.14795391907514452        0        
C1        C        0.6875        0.907408        0.14795391907514452        0        
C1        C        0.75        0.907408        0.14795391907514452        0        
C1        C        0.8125        0.907408        0.14795391907514452        0        
C1        C        0.875        0.907408        0.14795391907514452        0        
C1        C        0.9375        0.907408        0.14795391907514452        0        
C2        C        0.03125        0.962963        0.14795391907514452        0        
C2        C        0.09375        0.962963        0.14795391907514452        0        
C2        C        0.15625        0.962963        0.14795391907514452        0        
C2        C        0.21875        0.962963        0.14795391907514452        0        
C2        C        0.28125        0.962963        0.14795391907514452        0        
C2        C        0.34375        0.962963        0.14795391907514452        0        
C2        C        0.40625        0.962963        0.14795391907514452        0        
C2        C        0.46875        0.962963        0.14795391907514452        0        
C2        C        0.53125        0.962963        0.14795391907514452        0        
C2        C        0.59375        0.962963        0.14795391907514452        0        
C2        C        0.65625        0.962963        0.14795391907514452        0        
C2        C        0.71875        0.962963        0.14795391907514452        0        
C2        C        0.78125        0.962963        0.14795391907514452        0        
C2        C        0.84375        0.962963        0.14795391907514452        0        
C2        C        0.9062500000000001        0.962963        0.14795391907514452        0        
C2        C        0.9687500000000001        0.962963        0.14795391907514452        0        
C3        C        0.0        0.9814809999999999        0.14795391907514452        0        
C3        C        0.0625        0.9814809999999999        0.14795391907514452        0        
C3        C        0.125        0.9814809999999999        0.14795391907514452        0        
C3        C        0.1875        0.9814809999999999        0.14795391907514452        0        
C3        C        0.25        0.9814809999999999        0.14795391907514452        0        
C3        C        0.3125        0.9814809999999999        0.14795391907514452        0        
C3        C        0.375        0.9814809999999999        0.14795391907514452        0        
C3        C        0.4375        0.9814809999999999        0.14795391907514452        0        
C3        C        0.5        0.9814809999999999        0.14795391907514452        0        
C3        C        0.5625        0.9814809999999999        0.14795391907514452        0        
C3        C        0.625        0.9814809999999999        0.14795391907514452        0        
C3        C        0.6875        0.9814809999999999        0.14795391907514452        0        
C3        C        0.75        0.9814809999999999        0.14795391907514452        0        
C3        C        0.8125        0.9814809999999999        0.14795391907514452        0        
C3        C        0.875        0.9814809999999999        0.14795391907514452        0        
C3        C        0.9375        0.9814809999999999        0.14795391907514452        0        
C4        C        0.03125        0.925925        0.14795391907514452        0        
C4        C        0.09375        0.925925        0.14795391907514452        0        
C4        C        0.15625        0.925925        0.14795391907514452        0        
C4        C        0.21875        0.925925        0.14795391907514452        0        
C4        C        0.28125        0.925925        0.14795391907514452        0        
C4        C        0.34375        0.925925        0.14795391907514452        0        
C4        C        0.40625        0.925925        0.14795391907514452        0        
C4        C        0.46875        0.925925        0.14795391907514452        0        
C4        C        0.53125        0.925925        0.14795391907514452        0        
C4        C        0.59375        0.925925        0.14795391907514452        0        
C4        C        0.65625        0.925925        0.14795391907514452        0        
C4        C        0.71875        0.925925        0.14795391907514452        0        
C4        C        0.78125        0.925925        0.14795391907514452        0        
C4        C        0.84375        0.925925        0.14795391907514452        0        
C4        C        0.9062500000000001        0.925925        0.14795391907514452        0        
C4        C        0.9687500000000001        0.925925        0.14795391907514452        0        
C_FG        C        0.0        0.018519        0.24477491907514454        0.2        
C2        C        0.03125        0.074075        0.24477491907514454        0        
C3        C        0.0        0.092592        0.24477491907514454        0        
C4        C        0.03125        0.037037        0.24477491907514454        0        
C_FG        C        0.0        0.12963        0.24477491907514454        0.2        
C2        C        0.03125        0.185185        0.24477491907514454        0        
C3        C        0.0        0.203703        0.24477491907514454        0        
C4        C        0.03125        0.148148        0.24477491907514454        0        
C_FG        C        0.0        0.24074099999999998        0.24477491907514454        0.2        
C2        C        0.03125        0.296297        0.24477491907514454        0        
C3        C        0.0        0.314815        0.24477491907514454        0        
C4        C        0.03125        0.259259        0.24477491907514454        0        
C_FG        C        0.0        0.351852        0.24477491907514454        0.2        
C2        C        0.03125        0.407408        0.24477491907514454        0        
C3        C        0.0        0.42592500000000005        0.24477491907514454        0        
C4        C        0.03125        0.37037        0.24477491907514454        0        
C_FG        C        0.0        0.46296300000000007        0.24477491907514454        0.2        
C2        C        0.03125        0.518519        0.24477491907514454        0        
C3        C        0.0        0.537037        0.24477491907514454        0        
C4        C        0.03125        0.481481        0.24477491907514454        0        
C_FG        C        0.0        0.574075        0.24477491907514454        0.2        
C2        C        0.03125        0.62963        0.24477491907514454        0        
C3        C        0.0        0.648148        0.24477491907514454        0        
C4        C        0.03125        0.592592        0.24477491907514454        0        
C1        C        0.0625        0.018519        0.24477491907514454        0        
C2        C        0.09375        0.074075        0.24477491907514454        0        
C3        C        0.0625        0.092592        0.24477491907514454        0        
C4        C        0.09375        0.037037        0.24477491907514454        0        
C1        C        0.0625        0.12963        0.24477491907514454        0        
C2        C        0.09375        0.185185        0.24477491907514454        0        
C3        C        0.0625        0.203703        0.24477491907514454        0        
C4        C        0.09375        0.148148        0.24477491907514454        0        
C1        C        0.0625        0.24074099999999998        0.24477491907514454        0        
C2        C        0.09375        0.296297        0.24477491907514454        0        
C3        C        0.0625        0.314815        0.24477491907514454        0        
C4        C        0.09375        0.259259        0.24477491907514454        0        
C1        C        0.0625        0.351852        0.24477491907514454        0        
C2        C        0.09375        0.407408        0.24477491907514454        0        
C3        C        0.0625        0.42592500000000005        0.24477491907514454        0        
C4        C        0.09375        0.37037        0.24477491907514454        0        
C1        C        0.0625        0.46296300000000007        0.24477491907514454        0        
C2        C        0.09375        0.518519        0.24477491907514454        0        
C3        C        0.0625        0.537037        0.24477491907514454        0        
C4        C        0.09375        0.481481        0.24477491907514454        0        
C1        C        0.0625        0.574075        0.24477491907514454        0        
C2        C        0.09375        0.62963        0.24477491907514454        0        
C3        C        0.0625        0.648148        0.24477491907514454        0        
C4        C        0.09375        0.592592        0.24477491907514454        0        
C_FG        C        0.125        0.018519        0.24477491907514454        0.2        
C2        C        0.15625        0.074075        0.24477491907514454        0        
C3        C        0.125        0.092592        0.24477491907514454        0        
C4        C        0.15625        0.037037        0.24477491907514454        0        
C_FG        C        0.125        0.12963        0.24477491907514454        0.2        
C2        C        0.15625        0.185185        0.24477491907514454        0        
C3        C        0.125        0.203703        0.24477491907514454        0        
C4        C        0.15625        0.148148        0.24477491907514454        0        
C_FG        C        0.125        0.24074099999999998        0.24477491907514454        0.2        
C2        C        0.15625        0.296297        0.24477491907514454        0        
C3        C        0.125        0.314815        0.24477491907514454        0        
C4        C        0.15625        0.259259        0.24477491907514454        0        
C_FG        C        0.125        0.351852        0.24477491907514454        0.2        
C2        C        0.15625        0.407408        0.24477491907514454        0        
C3        C        0.125        0.42592500000000005        0.24477491907514454        0        
C4        C        0.15625        0.37037        0.24477491907514454        0        
C_FG        C        0.125        0.46296300000000007        0.24477491907514454        0.2        
C2        C        0.15625        0.518519        0.24477491907514454        0        
C3        C        0.125        0.537037        0.24477491907514454        0        
C4        C        0.15625        0.481481        0.24477491907514454        0        
C_FG        C        0.125        0.574075        0.24477491907514454        0.2        
C2        C        0.15625        0.62963        0.24477491907514454        0        
C3        C        0.125        0.648148        0.24477491907514454        0        
C4        C        0.15625        0.592592        0.24477491907514454        0        
C1        C        0.1875        0.018519        0.24477491907514454        0        
C2        C        0.21875        0.074075        0.24477491907514454        0        
C3        C        0.1875        0.092592        0.24477491907514454        0        
C4        C        0.21875        0.037037        0.24477491907514454        0        
C1        C        0.1875        0.12963        0.24477491907514454        0        
C2        C        0.21875        0.185185        0.24477491907514454        0        
C3        C        0.1875        0.203703        0.24477491907514454        0        
C4        C        0.21875        0.148148        0.24477491907514454        0        
C1        C        0.1875        0.24074099999999998        0.24477491907514454        0        
C2        C        0.21875        0.296297        0.24477491907514454        0        
C3        C        0.1875        0.314815        0.24477491907514454        0        
C4        C        0.21875        0.259259        0.24477491907514454        0        
C1        C        0.1875        0.351852        0.24477491907514454        0        
C2        C        0.21875        0.407408        0.24477491907514454        0        
C3        C        0.1875        0.42592500000000005        0.24477491907514454        0        
C4        C        0.21875        0.37037        0.24477491907514454        0        
C1        C        0.1875        0.46296300000000007        0.24477491907514454        0        
C2        C        0.21875        0.518519        0.24477491907514454        0        
C3        C        0.1875        0.537037        0.24477491907514454        0        
C4        C        0.21875        0.481481        0.24477491907514454        0        
C1        C        0.1875        0.574075        0.24477491907514454        0        
C2        C        0.21875        0.62963        0.24477491907514454        0        
C3        C        0.1875        0.648148        0.24477491907514454        0        
C4        C        0.21875        0.592592        0.24477491907514454        0        
C_FG        C        0.25        0.018519        0.24477491907514454        0.2        
C2        C        0.28125        0.074075        0.24477491907514454        0        
C3        C        0.25        0.092592        0.24477491907514454        0        
C4        C        0.28125        0.037037        0.24477491907514454        0        
C_FG        C        0.25        0.12963        0.24477491907514454        0.2        
C2        C        0.28125        0.185185        0.24477491907514454        0        
C3        C        0.25        0.203703        0.24477491907514454        0        
C4        C        0.28125        0.148148        0.24477491907514454        0        
C_FG        C        0.25        0.24074099999999998        0.24477491907514454        0.2        
C2        C        0.28125        0.296297        0.24477491907514454        0        
C3        C        0.25        0.314815        0.24477491907514454        0        
C4        C        0.28125        0.259259        0.24477491907514454        0        
C_FG        C        0.25        0.351852        0.24477491907514454        0.2        
C2        C        0.28125        0.407408        0.24477491907514454        0        
C3        C        0.25        0.42592500000000005        0.24477491907514454        0        
C4        C        0.28125        0.37037        0.24477491907514454        0        
C_FG        C        0.25        0.46296300000000007        0.24477491907514454        0.2        
C2        C        0.28125        0.518519        0.24477491907514454        0        
C3        C        0.25        0.537037        0.24477491907514454        0        
C4        C        0.28125        0.481481        0.24477491907514454        0        
C_FG        C        0.25        0.574075        0.24477491907514454        0.2        
C2        C        0.28125        0.62963        0.24477491907514454        0        
C3        C        0.25        0.648148        0.24477491907514454        0        
C4        C        0.28125        0.592592        0.24477491907514454        0        
C1        C        0.3125        0.018519        0.24477491907514454        0        
C2        C        0.34375        0.074075        0.24477491907514454        0        
C3        C        0.3125        0.092592        0.24477491907514454        0        
C4        C        0.34375        0.037037        0.24477491907514454        0        
C1        C        0.3125        0.12963        0.24477491907514454        0        
C2        C        0.34375        0.185185        0.24477491907514454        0        
C3        C        0.3125        0.203703        0.24477491907514454        0        
C4        C        0.34375        0.148148        0.24477491907514454        0        
C1        C        0.3125        0.24074099999999998        0.24477491907514454        0        
C2        C        0.34375        0.296297        0.24477491907514454        0        
C3        C        0.3125        0.314815        0.24477491907514454        0        
C4        C        0.34375        0.259259        0.24477491907514454        0        
C1        C        0.3125        0.351852        0.24477491907514454        0        
C2        C        0.34375        0.407408        0.24477491907514454        0        
C3        C        0.3125        0.42592500000000005        0.24477491907514454        0        
C4        C        0.34375        0.37037        0.24477491907514454        0        
C1        C        0.3125        0.46296300000000007        0.24477491907514454        0        
C2        C        0.34375        0.518519        0.24477491907514454        0        
C3        C        0.3125        0.537037        0.24477491907514454        0        
C4        C        0.34375        0.481481        0.24477491907514454        0        
C1        C        0.3125        0.574075        0.24477491907514454        0        
C2        C        0.34375        0.62963        0.24477491907514454        0        
C3        C        0.3125        0.648148        0.24477491907514454        0        
C4        C        0.34375        0.592592        0.24477491907514454        0        
C_FG        C        0.375        0.018519        0.24477491907514454        0.2        
C2        C        0.40625        0.074075        0.24477491907514454        0        
C3        C        0.375        0.092592        0.24477491907514454        0        
C4        C        0.40625        0.037037        0.24477491907514454        0        
C_FG        C        0.375        0.12963        0.24477491907514454        0.2        
C2        C        0.40625        0.185185        0.24477491907514454        0        
C3        C        0.375        0.203703        0.24477491907514454        0        
C4        C        0.40625        0.148148        0.24477491907514454        0        
C_FG        C        0.375        0.24074099999999998        0.24477491907514454        0.2        
C2        C        0.40625        0.296297        0.24477491907514454        0        
C3        C        0.375        0.314815        0.24477491907514454        0        
C4        C        0.40625        0.259259        0.24477491907514454        0        
C_FG        C        0.375        0.351852        0.24477491907514454        0.2        
C2        C        0.40625        0.407408        0.24477491907514454        0        
C3        C        0.375        0.42592500000000005        0.24477491907514454        0        
C4        C        0.40625        0.37037        0.24477491907514454        0        
C_FG        C        0.375        0.46296300000000007        0.24477491907514454        0.2        
C2        C        0.40625        0.518519        0.24477491907514454        0        
C3        C        0.375        0.537037        0.24477491907514454        0        
C4        C        0.40625        0.481481        0.24477491907514454        0        
C_FG        C        0.375        0.574075        0.24477491907514454        0.2        
C2        C        0.40625        0.62963        0.24477491907514454        0        
C3        C        0.375        0.648148        0.24477491907514454        0        
C4        C        0.40625        0.592592        0.24477491907514454        0        
C1        C        0.4375        0.018519        0.24477491907514454        0        
C2        C        0.46875        0.074075        0.24477491907514454        0        
C3        C        0.4375        0.092592        0.24477491907514454        0        
C4        C        0.46875        0.037037        0.24477491907514454        0        
C1        C        0.4375        0.12963        0.24477491907514454        0        
C2        C        0.46875        0.185185        0.24477491907514454        0        
C3        C        0.4375        0.203703        0.24477491907514454        0        
C4        C        0.46875        0.148148        0.24477491907514454        0        
C1        C        0.4375        0.24074099999999998        0.24477491907514454        0        
C2        C        0.46875        0.296297        0.24477491907514454        0        
C3        C        0.4375        0.314815        0.24477491907514454        0        
C4        C        0.46875        0.259259        0.24477491907514454        0        
C1        C        0.4375        0.351852        0.24477491907514454        0        
C2        C        0.46875        0.407408        0.24477491907514454        0        
C3        C        0.4375        0.42592500000000005        0.24477491907514454        0        
C4        C        0.46875        0.37037        0.24477491907514454        0        
C1        C        0.4375        0.46296300000000007        0.24477491907514454        0        
C2        C        0.46875        0.518519        0.24477491907514454        0        
C3        C        0.4375        0.537037        0.24477491907514454        0        
C4        C        0.46875        0.481481        0.24477491907514454        0        
C1        C        0.4375        0.574075        0.24477491907514454        0        
C2        C        0.46875        0.62963        0.24477491907514454        0        
C3        C        0.4375        0.648148        0.24477491907514454        0        
C4        C        0.46875        0.592592        0.24477491907514454        0        
C_FG        C        0.5        0.018519        0.24477491907514454        0.2        
C2        C        0.53125        0.074075        0.24477491907514454        0        
C3        C        0.5        0.092592        0.24477491907514454        0        
C4        C        0.53125        0.037037        0.24477491907514454        0        
C_FG        C        0.5        0.12963        0.24477491907514454        0.2        
C2        C        0.53125        0.185185        0.24477491907514454        0        
C3        C        0.5        0.203703        0.24477491907514454        0        
C4        C        0.53125        0.148148        0.24477491907514454        0        
C_FG        C        0.5        0.24074099999999998        0.24477491907514454        0.2        
C2        C        0.53125        0.296297        0.24477491907514454        0        
C3        C        0.5        0.314815        0.24477491907514454        0        
C4        C        0.53125        0.259259        0.24477491907514454        0        
C_FG        C        0.5        0.351852        0.24477491907514454        0.2        
C2        C        0.53125        0.407408        0.24477491907514454        0        
C3        C        0.5        0.42592500000000005        0.24477491907514454        0        
C4        C        0.53125        0.37037        0.24477491907514454        0        
C_FG        C        0.5        0.46296300000000007        0.24477491907514454        0.2        
C2        C        0.53125        0.518519        0.24477491907514454        0        
C3        C        0.5        0.537037        0.24477491907514454        0        
C4        C        0.53125        0.481481        0.24477491907514454        0        
C_FG        C        0.5        0.574075        0.24477491907514454        0.2        
C2        C        0.53125        0.62963        0.24477491907514454        0        
C3        C        0.5        0.648148        0.24477491907514454        0        
C4        C        0.53125        0.592592        0.24477491907514454        0        
C1        C        0.5625        0.018519        0.24477491907514454        0        
C2        C        0.59375        0.074075        0.24477491907514454        0        
C3        C        0.5625        0.092592        0.24477491907514454        0        
C4        C        0.59375        0.037037        0.24477491907514454        0        
C1        C        0.5625        0.12963        0.24477491907514454        0        
C2        C        0.59375        0.185185        0.24477491907514454        0        
C3        C        0.5625        0.203703        0.24477491907514454        0        
C4        C        0.59375        0.148148        0.24477491907514454        0        
C1        C        0.5625        0.24074099999999998        0.24477491907514454        0        
C2        C        0.59375        0.296297        0.24477491907514454        0        
C3        C        0.5625        0.314815        0.24477491907514454        0        
C4        C        0.59375        0.259259        0.24477491907514454        0        
C1        C        0.5625        0.351852        0.24477491907514454        0        
C2        C        0.59375        0.407408        0.24477491907514454        0        
C3        C        0.5625        0.42592500000000005        0.24477491907514454        0        
C4        C        0.59375        0.37037        0.24477491907514454        0        
C1        C        0.5625        0.46296300000000007        0.24477491907514454        0        
C2        C        0.59375        0.518519        0.24477491907514454        0        
C3        C        0.5625        0.537037        0.24477491907514454        0        
C4        C        0.59375        0.481481        0.24477491907514454        0        
C1        C        0.5625        0.574075        0.24477491907514454        0        
C2        C        0.59375        0.62963        0.24477491907514454        0        
C3        C        0.5625        0.648148        0.24477491907514454        0        
C4        C        0.59375        0.592592        0.24477491907514454        0        
C_FG        C        0.625        0.018519        0.24477491907514454        0.2        
C2        C        0.65625        0.074075        0.24477491907514454        0        
C3        C        0.625        0.092592        0.24477491907514454        0        
C4        C        0.65625        0.037037        0.24477491907514454        0        
C_FG        C        0.625        0.12963        0.24477491907514454        0.2        
C2        C        0.65625        0.185185        0.24477491907514454        0        
C3        C        0.625        0.203703        0.24477491907514454        0        
C4        C        0.65625        0.148148        0.24477491907514454        0        
C_FG        C        0.625        0.24074099999999998        0.24477491907514454        0.2        
C2        C        0.65625        0.296297        0.24477491907514454        0        
C3        C        0.625        0.314815        0.24477491907514454        0        
C4        C        0.65625        0.259259        0.24477491907514454        0        
C_FG        C        0.625        0.351852        0.24477491907514454        0.2        
C2        C        0.65625        0.407408        0.24477491907514454        0        
C3        C        0.625        0.42592500000000005        0.24477491907514454        0        
C4        C        0.65625        0.37037        0.24477491907514454        0        
C_FG        C        0.625        0.46296300000000007        0.24477491907514454        0.2        
C2        C        0.65625        0.518519        0.24477491907514454        0        
C3        C        0.625        0.537037        0.24477491907514454        0        
C4        C        0.65625        0.481481        0.24477491907514454        0        
C_FG        C        0.625        0.574075        0.24477491907514454        0.2        
C2        C        0.65625        0.62963        0.24477491907514454        0        
C3        C        0.625        0.648148        0.24477491907514454        0        
C4        C        0.65625        0.592592        0.24477491907514454        0        
C1        C        0.6875        0.018519        0.24477491907514454        0        
C2        C        0.71875        0.074075        0.24477491907514454        0        
C3        C        0.6875        0.092592        0.24477491907514454        0        
C4        C        0.71875        0.037037        0.24477491907514454        0        
C1        C        0.6875        0.12963        0.24477491907514454        0        
C2        C        0.71875        0.185185        0.24477491907514454        0        
C3        C        0.6875        0.203703        0.24477491907514454        0        
C4        C        0.71875        0.148148        0.24477491907514454        0        
C1        C        0.6875        0.24074099999999998        0.24477491907514454        0        
C2        C        0.71875        0.296297        0.24477491907514454        0        
C3        C        0.6875        0.314815        0.24477491907514454        0        
C4        C        0.71875        0.259259        0.24477491907514454        0        
C1        C        0.6875        0.351852        0.24477491907514454        0        
C2        C        0.71875        0.407408        0.24477491907514454        0        
C3        C        0.6875        0.42592500000000005        0.24477491907514454        0        
C4        C        0.71875        0.37037        0.24477491907514454        0        
C1        C        0.6875        0.46296300000000007        0.24477491907514454        0        
C2        C        0.71875        0.518519        0.24477491907514454        0        
C3        C        0.6875        0.537037        0.24477491907514454        0        
C4        C        0.71875        0.481481        0.24477491907514454        0        
C1        C        0.6875        0.574075        0.24477491907514454        0        
C2        C        0.71875        0.62963        0.24477491907514454        0        
C3        C        0.6875        0.648148        0.24477491907514454        0        
C4        C        0.71875        0.592592        0.24477491907514454        0        
C_FG        C        0.75        0.018519        0.24477491907514454        0.2        
C2        C        0.78125        0.074075        0.24477491907514454        0        
C3        C        0.75        0.092592        0.24477491907514454        0        
C4        C        0.78125        0.037037        0.24477491907514454        0        
C_FG        C        0.75        0.12963        0.24477491907514454        0.2        
C2        C        0.78125        0.185185        0.24477491907514454        0        
C3        C        0.75        0.203703        0.24477491907514454        0        
C4        C        0.78125        0.148148        0.24477491907514454        0        
C_FG        C        0.75        0.24074099999999998        0.24477491907514454        0.2        
C2        C        0.78125        0.296297        0.24477491907514454        0        
C3        C        0.75        0.314815        0.24477491907514454        0        
C4        C        0.78125        0.259259        0.24477491907514454        0        
C_FG        C        0.75        0.351852        0.24477491907514454        0.2        
C2        C        0.78125        0.407408        0.24477491907514454        0        
C3        C        0.75        0.42592500000000005        0.24477491907514454        0        
C4        C        0.78125        0.37037        0.24477491907514454        0        
C_FG        C        0.75        0.46296300000000007        0.24477491907514454        0.2        
C2        C        0.78125        0.518519        0.24477491907514454        0        
C3        C        0.75        0.537037        0.24477491907514454        0        
C4        C        0.78125        0.481481        0.24477491907514454        0        
C_FG        C        0.75        0.574075        0.24477491907514454        0.2        
C2        C        0.78125        0.62963        0.24477491907514454        0        
C3        C        0.75        0.648148        0.24477491907514454        0        
C4        C        0.78125        0.592592        0.24477491907514454        0        
C1        C        0.8125        0.018519        0.24477491907514454        0        
C2        C        0.84375        0.074075        0.24477491907514454        0        
C3        C        0.8125        0.092592        0.24477491907514454        0        
C4        C        0.84375        0.037037        0.24477491907514454        0        
C1        C        0.8125        0.12963        0.24477491907514454        0        
C2        C        0.84375        0.185185        0.24477491907514454        0        
C3        C        0.8125        0.203703        0.24477491907514454        0        
C4        C        0.84375        0.148148        0.24477491907514454        0        
C1        C        0.8125        0.24074099999999998        0.24477491907514454        0        
C2        C        0.84375        0.296297        0.24477491907514454        0        
C3        C        0.8125        0.314815        0.24477491907514454        0        
C4        C        0.84375        0.259259        0.24477491907514454        0        
C1        C        0.8125        0.351852        0.24477491907514454        0        
C2        C        0.84375        0.407408        0.24477491907514454        0        
C3        C        0.8125        0.42592500000000005        0.24477491907514454        0        
C4        C        0.84375        0.37037        0.24477491907514454        0        
C1        C        0.8125        0.46296300000000007        0.24477491907514454        0        
C2        C        0.84375        0.518519        0.24477491907514454        0        
C3        C        0.8125        0.537037        0.24477491907514454        0        
C4        C        0.84375        0.481481        0.24477491907514454        0        
C1        C        0.8125        0.574075        0.24477491907514454        0        
C2        C        0.84375        0.62963        0.24477491907514454        0        
C3        C        0.8125        0.648148        0.24477491907514454        0        
C4        C        0.84375        0.592592        0.24477491907514454        0        
C_FG        C        0.875        0.018519        0.24477491907514454        0.2        
C2        C        0.9062500000000001        0.074075        0.24477491907514454        0        
C3        C        0.875        0.092592        0.24477491907514454        0        
C4        C        0.9062500000000001        0.037037        0.24477491907514454        0        
C_FG        C        0.875        0.12963        0.24477491907514454        0.2        
C2        C        0.9062500000000001        0.185185        0.24477491907514454        0        
C3        C        0.875        0.203703        0.24477491907514454        0        
C4        C        0.9062500000000001        0.148148        0.24477491907514454        0        
C_FG        C        0.875        0.24074099999999998        0.24477491907514454        0.2        
C2        C        0.9062500000000001        0.296297        0.24477491907514454        0        
C3        C        0.875        0.314815        0.24477491907514454        0        
C4        C        0.9062500000000001        0.259259        0.24477491907514454        0        
C_FG        C        0.875        0.351852        0.24477491907514454        0.2        
C2        C        0.9062500000000001        0.407408        0.24477491907514454        0        
C3        C        0.875        0.42592500000000005        0.24477491907514454        0        
C4        C        0.9062500000000001        0.37037        0.24477491907514454        0        
C_FG        C        0.875        0.46296300000000007        0.24477491907514454        0.2        
C2        C        0.9062500000000001        0.518519        0.24477491907514454        0        
C3        C        0.875        0.537037        0.24477491907514454        0        
C4        C        0.9062500000000001        0.481481        0.24477491907514454        0        
C_FG        C        0.875        0.574075        0.24477491907514454        0.2        
C2        C        0.9062500000000001        0.62963        0.24477491907514454        0        
C3        C        0.875        0.648148        0.24477491907514454        0        
C4        C        0.9062500000000001        0.592592        0.24477491907514454        0        
C1        C        0.9375        0.018519        0.24477491907514454        0        
C2        C        0.9687500000000001        0.074075        0.24477491907514454        0        
C3        C        0.9375        0.092592        0.24477491907514454        0        
C4        C        0.9687500000000001        0.037037        0.24477491907514454        0        
C1        C        0.9375        0.12963        0.24477491907514454        0        
C2        C        0.9687500000000001        0.185185        0.24477491907514454        0        
C3        C        0.9375        0.203703        0.24477491907514454        0        
C4        C        0.9687500000000001        0.148148        0.24477491907514454        0        
C1        C        0.9375        0.24074099999999998        0.24477491907514454        0        
C2        C        0.9687500000000001        0.296297        0.24477491907514454        0        
C3        C        0.9375        0.314815        0.24477491907514454        0        
C4        C        0.9687500000000001        0.259259        0.24477491907514454        0        
C1        C        0.9375        0.351852        0.24477491907514454        0        
C2        C        0.9687500000000001        0.407408        0.24477491907514454        0        
C3        C        0.9375        0.42592500000000005        0.24477491907514454        0        
C4        C        0.9687500000000001        0.37037        0.24477491907514454        0        
C1        C        0.9375        0.46296300000000007        0.24477491907514454        0        
C2        C        0.9687500000000001        0.518519        0.24477491907514454        0        
C3        C        0.9375        0.537037        0.24477491907514454        0        
C4        C        0.9687500000000001        0.481481        0.24477491907514454        0        
C1        C        0.9375        0.574075        0.24477491907514454        0        
C2        C        0.9687500000000001        0.62963        0.24477491907514454        0        
C3        C        0.9375        0.648148        0.24477491907514454        0        
C4        C        0.9687500000000001        0.592592        0.24477491907514454        0        
C_FG        C        0.0        0.685186        0.24477491907514454        0.2        
C1        C        0.0625        0.685186        0.24477491907514454        0        
C_FG        C        0.125        0.685186        0.24477491907514454        0.2        
C1        C        0.1875        0.685186        0.24477491907514454        0        
C_FG        C        0.25        0.685186        0.24477491907514454        0.2        
C1        C        0.3125        0.685186        0.24477491907514454        0        
C_FG        C        0.375        0.685186        0.24477491907514454        0.2        
C1        C        0.4375        0.685186        0.24477491907514454        0        
C_FG        C        0.5        0.685186        0.24477491907514454        0.2        
C1        C        0.5625        0.685186        0.24477491907514454        0        
C_FG        C        0.625        0.685186        0.24477491907514454        0.2        
C1        C        0.6875        0.685186        0.24477491907514454        0        
C_FG        C        0.75        0.685186        0.24477491907514454        0.2        
C1        C        0.8125        0.685186        0.24477491907514454        0        
C_FG        C        0.875        0.685186        0.24477491907514454        0.2        
C1        C        0.9375        0.685186        0.24477491907514454        0        
C2        C        0.03125        0.740741        0.24477491907514454        0        
C2        C        0.09375        0.740741        0.24477491907514454        0        
C2        C        0.15625        0.740741        0.24477491907514454        0        
C2        C        0.21875        0.740741        0.24477491907514454        0        
C2        C        0.28125        0.740741        0.24477491907514454        0        
C2        C        0.34375        0.740741        0.24477491907514454        0        
C2        C        0.40625        0.740741        0.24477491907514454        0        
C2        C        0.46875        0.740741        0.24477491907514454        0        
C2        C        0.53125        0.740741        0.24477491907514454        0        
C2        C        0.59375        0.740741        0.24477491907514454        0        
C2        C        0.65625        0.740741        0.24477491907514454        0        
C2        C        0.71875        0.740741        0.24477491907514454        0        
C2        C        0.78125        0.740741        0.24477491907514454        0        
C2        C        0.84375        0.740741        0.24477491907514454        0        
C2        C        0.9062500000000001        0.740741        0.24477491907514454        0        
C2        C        0.9687500000000001        0.740741        0.24477491907514454        0        
C3        C        0.0        0.759259        0.24477491907514454        0        
C3        C        0.0625        0.759259        0.24477491907514454        0        
C3        C        0.125        0.759259        0.24477491907514454        0        
C3        C        0.1875        0.759259        0.24477491907514454        0        
C3        C        0.25        0.759259        0.24477491907514454        0        
C3        C        0.3125        0.759259        0.24477491907514454        0        
C3        C        0.375        0.759259        0.24477491907514454        0        
C3        C        0.4375        0.759259        0.24477491907514454        0        
C3        C        0.5        0.759259        0.24477491907514454        0        
C3        C        0.5625        0.759259        0.24477491907514454        0        
C3        C        0.625        0.759259        0.24477491907514454        0        
C3        C        0.6875        0.759259        0.24477491907514454        0        
C3        C        0.75        0.759259        0.24477491907514454        0        
C3        C        0.8125        0.759259        0.24477491907514454        0        
C3        C        0.875        0.759259        0.24477491907514454        0        
C3        C        0.9375        0.759259        0.24477491907514454        0        
C4        C        0.03125        0.703703        0.24477491907514454        0        
C4        C        0.09375        0.703703        0.24477491907514454        0        
C4        C        0.15625        0.703703        0.24477491907514454        0        
C4        C        0.21875        0.703703        0.24477491907514454        0        
C4        C        0.28125        0.703703        0.24477491907514454        0        
C4        C        0.34375        0.703703        0.24477491907514454        0        
C4        C        0.40625        0.703703        0.24477491907514454        0        
C4        C        0.46875        0.703703        0.24477491907514454        0        
C4        C        0.53125        0.703703        0.24477491907514454        0        
C4        C        0.59375        0.703703        0.24477491907514454        0        
C4        C        0.65625        0.703703        0.24477491907514454        0        
C4        C        0.71875        0.703703        0.24477491907514454        0        
C4        C        0.78125        0.703703        0.24477491907514454        0        
C4        C        0.84375        0.703703        0.24477491907514454        0        
C4        C        0.9062500000000001        0.703703        0.24477491907514454        0        
C4        C        0.9687500000000001        0.703703        0.24477491907514454        0        
C_FG        C        0.0        0.796297        0.24477491907514454        0.2        
C1        C        0.0625        0.796297        0.24477491907514454        0        
C_FG        C        0.125        0.796297        0.24477491907514454        0.2        
C1        C        0.1875        0.796297        0.24477491907514454        0        
C_FG        C        0.25        0.796297        0.24477491907514454        0.2        
C1        C        0.3125        0.796297        0.24477491907514454        0        
C_FG        C        0.375        0.796297        0.24477491907514454        0.2        
C1        C        0.4375        0.796297        0.24477491907514454        0        
C_FG        C        0.5        0.796297        0.24477491907514454        0.2        
C1        C        0.5625        0.796297        0.24477491907514454        0        
C_FG        C        0.625        0.796297        0.24477491907514454        0.2        
C1        C        0.6875        0.796297        0.24477491907514454        0        
C_FG        C        0.75        0.796297        0.24477491907514454        0.2        
C1        C        0.8125        0.796297        0.24477491907514454        0        
C_FG        C        0.875        0.796297        0.24477491907514454        0.2        
C1        C        0.9375        0.796297        0.24477491907514454        0        
C2        C        0.03125        0.851852        0.24477491907514454        0        
C2        C        0.09375        0.851852        0.24477491907514454        0        
C2        C        0.15625        0.851852        0.24477491907514454        0        
C2        C        0.21875        0.851852        0.24477491907514454        0        
C2        C        0.28125        0.851852        0.24477491907514454        0        
C2        C        0.34375        0.851852        0.24477491907514454        0        
C2        C        0.40625        0.851852        0.24477491907514454        0        
C2        C        0.46875        0.851852        0.24477491907514454        0        
C2        C        0.53125        0.851852        0.24477491907514454        0        
C2        C        0.59375        0.851852        0.24477491907514454        0        
C2        C        0.65625        0.851852        0.24477491907514454        0        
C2        C        0.71875        0.851852        0.24477491907514454        0        
C2        C        0.78125        0.851852        0.24477491907514454        0        
C2        C        0.84375        0.851852        0.24477491907514454        0        
C2        C        0.9062500000000001        0.851852        0.24477491907514454        0        
C2        C        0.9687500000000001        0.851852        0.24477491907514454        0        
C3        C        0.0        0.87037        0.24477491907514454        0        
C3        C        0.0625        0.87037        0.24477491907514454        0        
C3        C        0.125        0.87037        0.24477491907514454        0        
C3        C        0.1875        0.87037        0.24477491907514454        0        
C3        C        0.25        0.87037        0.24477491907514454        0        
C3        C        0.3125        0.87037        0.24477491907514454        0        
C3        C        0.375        0.87037        0.24477491907514454        0        
C3        C        0.4375        0.87037        0.24477491907514454        0        
C3        C        0.5        0.87037        0.24477491907514454        0        
C3        C        0.5625        0.87037        0.24477491907514454        0        
C3        C        0.625        0.87037        0.24477491907514454        0        
C3        C        0.6875        0.87037        0.24477491907514454        0        
C3        C        0.75        0.87037        0.24477491907514454        0        
C3        C        0.8125        0.87037        0.24477491907514454        0        
C3        C        0.875        0.87037        0.24477491907514454        0        
C3        C        0.9375        0.87037        0.24477491907514454        0        
C4        C        0.03125        0.814814        0.24477491907514454        0        
C4        C        0.09375        0.814814        0.24477491907514454        0        
C4        C        0.15625        0.814814        0.24477491907514454        0        
C4        C        0.21875        0.814814        0.24477491907514454        0        
C4        C        0.28125        0.814814        0.24477491907514454        0        
C4        C        0.34375        0.814814        0.24477491907514454        0        
C4        C        0.40625        0.814814        0.24477491907514454        0        
C4        C        0.46875        0.814814        0.24477491907514454        0        
C4        C        0.53125        0.814814        0.24477491907514454        0        
C4        C        0.59375        0.814814        0.24477491907514454        0        
C4        C        0.65625        0.814814        0.24477491907514454        0        
C4        C        0.71875        0.814814        0.24477491907514454        0        
C4        C        0.78125        0.814814        0.24477491907514454        0        
C4        C        0.84375        0.814814        0.24477491907514454        0        
C4        C        0.9062500000000001        0.814814        0.24477491907514454        0        
C4        C        0.9687500000000001        0.814814        0.24477491907514454        0        
C_FG        C        0.0        0.907408        0.24477491907514454        0.2        
C1        C        0.0625        0.907408        0.24477491907514454        0        
C_FG        C        0.125        0.907408        0.24477491907514454        0.2        
C1        C        0.1875        0.907408        0.24477491907514454        0        
C_FG        C        0.25        0.907408        0.24477491907514454        0.2        
C1        C        0.3125        0.907408        0.24477491907514454        0        
C_FG        C        0.375        0.907408        0.24477491907514454        0.2        
C1        C        0.4375        0.907408        0.24477491907514454        0        
C_FG        C        0.5        0.907408        0.24477491907514454        0.2        
C1        C        0.5625        0.907408        0.24477491907514454        0        
C_FG        C        0.625        0.907408        0.24477491907514454        0.2        
C1        C        0.6875        0.907408        0.24477491907514454        0        
C_FG        C        0.75        0.907408        0.24477491907514454        0.2        
C1        C        0.8125        0.907408        0.24477491907514454        0        
C_FG        C        0.875        0.907408        0.24477491907514454        0.2        
C1        C        0.9375        0.907408        0.24477491907514454        0        
C2        C        0.03125        0.962963        0.24477491907514454        0        
C2        C        0.09375        0.962963        0.24477491907514454        0        
C2        C        0.15625        0.962963        0.24477491907514454        0        
C2        C        0.21875        0.962963        0.24477491907514454        0        
C2        C        0.28125        0.962963        0.24477491907514454        0        
C2        C        0.34375        0.962963        0.24477491907514454        0        
C2        C        0.40625        0.962963        0.24477491907514454        0        
C2        C        0.46875        0.962963        0.24477491907514454        0        
C2        C        0.53125        0.962963        0.24477491907514454        0        
C2        C        0.59375        0.962963        0.24477491907514454        0        
C2        C        0.65625        0.962963        0.24477491907514454        0        
C2        C        0.71875        0.962963        0.24477491907514454        0        
C2        C        0.78125        0.962963        0.24477491907514454        0        
C2        C        0.84375        0.962963        0.24477491907514454        0        
C2        C        0.9062500000000001        0.962963        0.24477491907514454        0        
C2        C        0.9687500000000001        0.962963        0.24477491907514454        0        
C3        C        0.0        0.9814809999999999        0.24477491907514454        0        
C3        C        0.0625        0.9814809999999999        0.24477491907514454        0        
C3        C        0.125        0.9814809999999999        0.24477491907514454        0        
C3        C        0.1875        0.9814809999999999        0.24477491907514454        0        
C3        C        0.25        0.9814809999999999        0.24477491907514454        0        
C3        C        0.3125        0.9814809999999999        0.24477491907514454        0        
C3        C        0.375        0.9814809999999999        0.24477491907514454        0        
C3        C        0.4375        0.9814809999999999        0.24477491907514454        0        
C3        C        0.5        0.9814809999999999        0.24477491907514454        0        
C3        C        0.5625        0.9814809999999999        0.24477491907514454        0        
C3        C        0.625        0.9814809999999999        0.24477491907514454        0        
C3        C        0.6875        0.9814809999999999        0.24477491907514454        0        
C3        C        0.75        0.9814809999999999        0.24477491907514454        0        
C3        C        0.8125        0.9814809999999999        0.24477491907514454        0        
C3        C        0.875        0.9814809999999999        0.24477491907514454        0        
C3        C        0.9375        0.9814809999999999        0.24477491907514454        0        
C4        C        0.03125        0.925925        0.24477491907514454        0        
C4        C        0.09375        0.925925        0.24477491907514454        0        
C4        C        0.15625        0.925925        0.24477491907514454        0        
C4        C        0.21875        0.925925        0.24477491907514454        0        
C4        C        0.28125        0.925925        0.24477491907514454        0        
C4        C        0.34375        0.925925        0.24477491907514454        0        
C4        C        0.40625        0.925925        0.24477491907514454        0        
C4        C        0.46875        0.925925        0.24477491907514454        0        
C4        C        0.53125        0.925925        0.24477491907514454        0        
C4        C        0.59375        0.925925        0.24477491907514454        0        
C4        C        0.65625        0.925925        0.24477491907514454        0        
C4        C        0.71875        0.925925        0.24477491907514454        0        
C4        C        0.78125        0.925925        0.24477491907514454        0        
C4        C        0.84375        0.925925        0.24477491907514454        0        
C4        C        0.9062500000000001        0.925925        0.24477491907514454        0        
C4        C        0.9687500000000001        0.925925        0.24477491907514454        0        
O_OH        O        0.0        0.018519        0.00971673410404624        -0.64        
O_OH        O        0.0        0.12963        0.00971673410404624        -0.64        
O_OH        O        0.0        0.24074099999999998        0.00971673410404624        -0.64        
O_OH        O        0.0        0.351852        0.00971673410404624        -0.64        
O_OH        O        0.0        0.46296300000000007        0.00971673410404624        -0.64        
O_OH        O        0.0        0.574075        0.00971673410404624        -0.64        
O_OH        O        0.125        0.018519        0.00971673410404624        -0.64        
O_OH        O        0.125        0.12963        0.00971673410404624        -0.64        
O_OH        O        0.125        0.24074099999999998        0.00971673410404624        -0.64        
O_OH        O        0.125        0.351852        0.00971673410404624        -0.64        
O_OH        O        0.125        0.46296300000000007        0.00971673410404624        -0.64        
O_OH        O        0.125        0.574075        0.00971673410404624        -0.64        
O_OH        O        0.25        0.018519        0.00971673410404624        -0.64        
O_OH        O        0.25        0.12963        0.00971673410404624        -0.64        
O_OH        O        0.25        0.24074099999999998        0.00971673410404624        -0.64        
O_OH        O        0.25        0.351852        0.00971673410404624        -0.64        
O_OH        O        0.25        0.46296300000000007        0.00971673410404624        -0.64        
O_OH        O        0.25        0.574075        0.00971673410404624        -0.64        
O_OH        O        0.375        0.018519        0.00971673410404624        -0.64        
O_OH        O        0.375        0.12963        0.00971673410404624        -0.64        
O_OH        O        0.375        0.24074099999999998        0.00971673410404624        -0.64        
O_OH        O        0.375        0.351852        0.00971673410404624        -0.64        
O_OH        O        0.375        0.46296300000000007        0.00971673410404624        -0.64        
O_OH        O        0.375        0.574075        0.00971673410404624        -0.64        
O_OH        O        0.5        0.018519        0.00971673410404624        -0.64        
O_OH        O        0.5        0.12963        0.00971673410404624        -0.64        
O_OH        O        0.5        0.24074099999999998        0.00971673410404624        -0.64        
O_OH        O        0.5        0.351852        0.00971673410404624        -0.64        
O_OH        O        0.5        0.46296300000000007        0.00971673410404624        -0.64        
O_OH        O        0.5        0.574075        0.00971673410404624        -0.64        
O_OH        O        0.625        0.018519        0.00971673410404624        -0.64        
O_OH        O        0.625        0.12963        0.00971673410404624        -0.64        
O_OH        O        0.625        0.24074099999999998        0.00971673410404624        -0.64        
O_OH        O        0.625        0.351852        0.00971673410404624        -0.64        
O_OH        O        0.625        0.46296300000000007        0.00971673410404624        -0.64        
O_OH        O        0.625        0.574075        0.00971673410404624        -0.64        
O_OH        O        0.75        0.018519        0.00971673410404624        -0.64        
O_OH        O        0.75        0.12963        0.00971673410404624        -0.64        
O_OH        O        0.75        0.24074099999999998        0.00971673410404624        -0.64        
O_OH        O        0.75        0.351852        0.00971673410404624        -0.64        
O_OH        O        0.75        0.46296300000000007        0.00971673410404624        -0.64        
O_OH        O        0.75        0.574075        0.00971673410404624        -0.64        
O_OH        O        0.875        0.018519        0.00971673410404624        -0.64        
O_OH        O        0.875        0.12963        0.00971673410404624        -0.64        
O_OH        O        0.875        0.24074099999999998        0.00971673410404624        -0.64        
O_OH        O        0.875        0.351852        0.00971673410404624        -0.64        
O_OH        O        0.875        0.46296300000000007        0.00971673410404624        -0.64        
O_OH        O        0.875        0.574075        0.00971673410404624        -0.64        
O_OH        O        0.0        0.685186        0.00971673410404624        -0.64        
O_OH        O        0.125        0.685186        0.00971673410404624        -0.64        
O_OH        O        0.25        0.685186        0.00971673410404624        -0.64        
O_OH        O        0.375        0.685186        0.00971673410404624        -0.64        
O_OH        O        0.5        0.685186        0.00971673410404624        -0.64        
O_OH        O        0.625        0.685186        0.00971673410404624        -0.64        
O_OH        O        0.75        0.685186        0.00971673410404624        -0.64        
O_OH        O        0.875        0.685186        0.00971673410404624        -0.64        
O_OH        O        0.0        0.796297        0.00971673410404624        -0.64        
O_OH        O        0.125        0.796297        0.00971673410404624        -0.64        
O_OH        O        0.25        0.796297        0.00971673410404624        -0.64        
O_OH        O        0.375        0.796297        0.00971673410404624        -0.64        
O_OH        O        0.5        0.796297        0.00971673410404624        -0.64        
O_OH        O        0.625        0.796297        0.00971673410404624        -0.64        
O_OH        O        0.75        0.796297        0.00971673410404624        -0.64        
O_OH        O        0.875        0.796297        0.00971673410404624        -0.64        
O_OH        O        0.0        0.907408        0.00971673410404624        -0.64        
O_OH        O        0.125        0.907408        0.00971673410404624        -0.64        
O_OH        O        0.25        0.907408        0.00971673410404624        -0.64        
O_OH        O        0.375        0.907408        0.00971673410404624        -0.64        
O_OH        O        0.5        0.907408        0.00971673410404624        -0.64        
O_OH        O        0.625        0.907408        0.00971673410404624        -0.64        
O_OH        O        0.75        0.907408        0.00971673410404624        -0.64        
O_OH        O        0.875        0.907408        0.00971673410404624        -0.64        
O_OH        O        0.0        0.018519        0.2861907225433526        -0.64        
O_OH        O        0.0        0.12963        0.2861907225433526        -0.64        
O_OH        O        0.0        0.24074099999999998        0.2861907225433526        -0.64        
O_OH        O        0.0        0.351852        0.2861907225433526        -0.64        
O_OH        O        0.0        0.46296300000000007        0.2861907225433526        -0.64        
O_OH        O        0.0        0.574075        0.2861907225433526        -0.64        
O_OH        O        0.125        0.018519        0.2861907225433526        -0.64        
O_OH        O        0.125        0.12963        0.2861907225433526        -0.64        
O_OH        O        0.125        0.24074099999999998        0.2861907225433526        -0.64        
O_OH        O        0.125        0.351852        0.2861907225433526        -0.64        
O_OH        O        0.125        0.46296300000000007        0.2861907225433526        -0.64        
O_OH        O        0.125        0.574075        0.2861907225433526        -0.64        
O_OH        O        0.25        0.018519        0.2861907225433526        -0.64        
O_OH        O        0.25        0.12963        0.2861907225433526        -0.64        
O_OH        O        0.25        0.24074099999999998        0.2861907225433526        -0.64        
O_OH        O        0.25        0.351852        0.2861907225433526        -0.64        
O_OH        O        0.25        0.46296300000000007        0.2861907225433526        -0.64        
O_OH        O        0.25        0.574075        0.2861907225433526        -0.64        
O_OH        O        0.375        0.018519        0.2861907225433526        -0.64        
O_OH        O        0.375        0.12963        0.2861907225433526        -0.64        
O_OH        O        0.375        0.24074099999999998        0.2861907225433526        -0.64        
O_OH        O        0.375        0.351852        0.2861907225433526        -0.64        
O_OH        O        0.375        0.46296300000000007        0.2861907225433526        -0.64        
O_OH        O        0.375        0.574075        0.2861907225433526        -0.64        
O_OH        O        0.5        0.018519        0.2861907225433526        -0.64        
O_OH        O        0.5        0.12963        0.2861907225433526        -0.64        
O_OH        O        0.5        0.24074099999999998        0.2861907225433526        -0.64        
O_OH        O        0.5        0.351852        0.2861907225433526        -0.64        
O_OH        O        0.5        0.46296300000000007        0.2861907225433526        -0.64        
O_OH        O        0.5        0.574075        0.2861907225433526        -0.64        
O_OH        O        0.625        0.018519        0.2861907225433526        -0.64        
O_OH        O        0.625        0.12963        0.2861907225433526        -0.64        
O_OH        O        0.625        0.24074099999999998        0.2861907225433526        -0.64        
O_OH        O        0.625        0.351852        0.2861907225433526        -0.64        
O_OH        O        0.625        0.46296300000000007        0.2861907225433526        -0.64        
O_OH        O        0.625        0.574075        0.2861907225433526        -0.64        
O_OH        O        0.75        0.018519        0.2861907225433526        -0.64        
O_OH        O        0.75        0.12963        0.2861907225433526        -0.64        
O_OH        O        0.75        0.24074099999999998        0.2861907225433526        -0.64        
O_OH        O        0.75        0.351852        0.2861907225433526        -0.64        
O_OH        O        0.75        0.46296300000000007        0.2861907225433526        -0.64        
O_OH        O        0.75        0.574075        0.2861907225433526        -0.64        
O_OH        O        0.875        0.018519        0.2861907225433526        -0.64        
O_OH        O        0.875        0.12963        0.2861907225433526        -0.64        
O_OH        O        0.875        0.24074099999999998        0.2861907225433526        -0.64        
O_OH        O        0.875        0.351852        0.2861907225433526        -0.64        
O_OH        O        0.875        0.46296300000000007        0.2861907225433526        -0.64        
O_OH        O        0.875        0.574075        0.2861907225433526        -0.64        
O_OH        O        0.0        0.685186        0.2861907225433526        -0.64        
O_OH        O        0.125        0.685186        0.2861907225433526        -0.64        
O_OH        O        0.25        0.685186        0.2861907225433526        -0.64        
O_OH        O        0.375        0.685186        0.2861907225433526        -0.64        
O_OH        O        0.5        0.685186        0.2861907225433526        -0.64        
O_OH        O        0.625        0.685186        0.2861907225433526        -0.64        
O_OH        O        0.75        0.685186        0.2861907225433526        -0.64        
O_OH        O        0.875        0.685186        0.2861907225433526        -0.64        
O_OH        O        0.0        0.796297        0.2861907225433526        -0.64        
O_OH        O        0.125        0.796297        0.2861907225433526        -0.64        
O_OH        O        0.25        0.796297        0.2861907225433526        -0.64        
O_OH        O        0.375        0.796297        0.2861907225433526        -0.64        
O_OH        O        0.5        0.796297        0.2861907225433526        -0.64        
O_OH        O        0.625        0.796297        0.2861907225433526        -0.64        
O_OH        O        0.75        0.796297        0.2861907225433526        -0.64        
O_OH        O        0.875        0.796297        0.2861907225433526        -0.64        
O_OH        O        0.0        0.907408        0.2861907225433526        -0.64        
O_OH        O        0.125        0.907408        0.2861907225433526        -0.64        
O_OH        O        0.25        0.907408        0.2861907225433526        -0.64        
O_OH        O        0.375        0.907408        0.2861907225433526        -0.64        
O_OH        O        0.5        0.907408        0.2861907225433526        -0.64        
O_OH        O        0.625        0.907408        0.2861907225433526        -0.64        
O_OH        O        0.75        0.907408        0.2861907225433526        -0.64        
O_OH        O        0.875        0.907408        0.2861907225433526        -0.64        
H_OH        H        -0.0198913338270961        0.030054447181403477        0.0        0.44        
H_OH        H        -0.002412840892597782        0.15295227825671284        0.0        0.44        
H_OH        H        0.02158210257020223        0.24843280476565577        0.0        0.44        
H_OH        H        0.02175845074063519        0.35900103856948085        0.0        0.44        
H_OH        H        0.0226052994189242        0.46635619637526543        0.0        0.44        
H_OH        H        0.01804876672892012        0.5884535545946943        0.0        0.44        
H_OH        H        0.12305478110407975        0.041887279018199684        0.0        0.44        
H_OH        H        0.12324141532570981        0.15301386175324286        0.0        0.44        
H_OH        H        0.13268718981217684        0.2628268646591963        0.0        0.44        
H_OH        H        0.14589531086863117        0.3613340826748836        0.0        0.44        
H_OH        H        0.1276693914780538        0.48625579964163634        0.0        0.44        
H_OH        H        0.1294463584080421        0.5970799630670056        0.0        0.44        
H_OH        H        0.23282532825834865        0.03398481586665764        0.0        0.44        
H_OH        H        0.2288999280795038        0.13862150983665614        0.0        0.44        
H_OH        H        0.2700154211017699        0.25204797279983104        0.0        0.44        
H_OH        H        0.25564358368685797        0.37457857236156833        0.0        0.44        
H_OH        H        0.23899933104100463        0.4835184132849751        0.0        0.44        
H_OH        H        0.2280309048876727        0.5805093743783226        0.0        0.44        
H_OH        H        0.38647810406602445        0.03879741773761196        0.0        0.44        
H_OH        H        0.3860388721842079        0.1501638169261596        0.0        0.44        
H_OH        H        0.35296091238521327        0.2469179617688725        0.0        0.44        
H_OH        H        0.3761556084242441        0.3752754267387331        0.0        0.44        
H_OH        H        0.36290551198769466        0.48286026295054646        0.0        0.44        
H_OH        H        0.3524923409573012        0.5780944675256424        0.0        0.44        
H_OH        H        0.522832897913454        0.019302923462329483        0.0        0.44        
H_OH        H        0.5138276719358629        0.14829951726225069        0.0        0.44        
H_OH        H        0.5107187353753211        0.2614527984519653        0.0        0.44        
H_OH        H        0.4968871048562369        0.37508671076516087        0.0        0.44        
H_OH        H        0.489722368934016        0.48390911013532606        0.0        0.44        
H_OH        H        0.49193702358296243        0.5960191929459528        0.0        0.44        
H_OH        H        0.628759593039079        0.041652692648028566        0.0        0.44        
H_OH        H        0.6467164944779324        0.13691224854081        0.0        0.44        
H_OH        H        0.639286016506619        0.2590431957973414        0.0        0.44        
H_OH        H        0.6475661903846768        0.35550927269371624        0.0        0.44        
H_OH        H        0.6390940274953744        0.4814214072143906        0.0        0.44        
H_OH        H        0.62753520957739        0.5973835935075655        0.0        0.44        
H_OH        H        0.7345827947986268        0.035826768500445624        0.0        0.44        
H_OH        H        0.768899589263968        0.14280616829782294        0.0        0.44        
H_OH        H        0.752596461365193        0.26404248622329496        0.0        0.44        
H_OH        H        0.7408993859101297        0.37336427081722723        0.0        0.44        
H_OH        H        0.7327652163418005        0.4783581785129533        0.0        0.44        
H_OH        H        0.7443480771625088        0.5967993881715092        0.0        0.44        
H_OH        H        0.8626198309544205        0.038230218898943694        0.0        0.44        
H_OH        H        0.8598922604188745        0.14722302656900285        0.0        0.44        
H_OH        H        0.8631275649790284        0.26077871285433346        0.0        0.44        
H_OH        H        0.8579417962524327        0.3674530723786118        0.0        0.44        
H_OH        H        0.886490816276262        0.4832338287328969        0.0        0.44        
H_OH        H        0.8566034721571076        0.5879813018765371        0.0        0.44        
H_OH        H        -0.008439761715920363        0.7069803654727902        0.0        0.44        
H_OH        H        0.13147965211101764        0.7076763257599084        0.0        0.44        
H_OH        H        0.2499315552023767        0.7086393454909816        0.0        0.44        
H_OH        H        0.36739228608040625        0.7073008486942258        0.0        0.44        
H_OH        H        0.4817134928076946        0.699244403964704        0.0        0.44        
H_OH        H        0.6023475073546481        0.6882294788486006        0.0        0.44        
H_OH        H        0.7368781816228047        0.704384929089681        0.0        0.44        
H_OH        H        0.8601690394563128        0.7030254999240416        0.0        0.44        
H_OH        H        -0.019484838842105754        0.8085418253642204        0.0        0.44        
H_OH        H        0.14689937787469584        0.80297715405675        0.0        0.44        
H_OH        H        0.22729627719762913        0.7989073406135739        0.0        0.44        
H_OH        H        0.3569616507012967        0.8106893255982295        0.0        0.44        
H_OH        H        0.5064446855311786        0.8187979119447305        0.0        0.44        
H_OH        H        0.647743725578835        0.7985101049609187        0.0        0.44        
H_OH        H        0.7507706640897619        0.8197371025369082        0.0        0.44        
H_OH        H        0.8749697015075367        0.8197504301221731        0.0        0.44        
H_OH        H        -0.02103095798835281        0.9165685722999226        0.0        0.44        
H_OH        H        0.1458135921158918        0.9170776462375806        0.0        0.44        
H_OH        H        0.24659621940602458        0.9305996790001495        0.0        0.44        
H_OH        H        0.382856463962775        0.929430997495826        0.0        0.44        
H_OH        H        0.48227613652899237        0.9222063824051976        0.0        0.44        
H_OH        H        0.6285033249317175        0.9305840510225485        0.0        0.44        
H_OH        H        0.7271571656458309        0.9077770688615664        0.0        0.44        
H_OH        H        0.8829258569676026        0.9294047767696462        0.0        0.44        
H_OH        H        0.017103175459926512        0.034068094277641334        0.2959074566473988        0.44        
H_OH        H        -0.006171220830369191        0.15221156446262812        0.2959074566473988        0.44        
H_OH        H        0.022437956216582452        0.24515210704173104        0.2959074566473988        0.44        
H_OH        H        -0.022843819128499376        0.3521499849790629        0.2959074566473988        0.44        
H_OH        H        0.010413267949242817        0.4838383866666119        0.2959074566473988        0.44        
H_OH        H        -0.017046180092321523        0.5896899168246671        0.2959074566473988        0.44        
H_OH        H        0.14223217479342753        0.03391725604341778        0.2959074566473988        0.44        
H_OH        H        0.12666449308592506        0.15302111879983962        0.2959074566473988        0.44        
H_OH        H        0.12058477460782643        0.26375228176108156        0.2959074566473988        0.44        
H_OH        H        0.14500720246634127        0.36317429216557634        0.2959074566473988        0.44        
H_OH        H        0.14240141114704036        0.47815934864345466        0.2959074566473988        0.44        
H_OH        H        0.12948742821412632        0.5970715570162624        0.2959074566473988        0.44        
H_OH        H        0.2679195109409677        0.03306694147692325        0.2959074566473988        0.44        
H_OH        H        0.24603256396276038        0.1527270807074366        0.2959074566473988        0.44        
H_OH        H        0.26515049322517276        0.2582952355525871        0.2959074566473988        0.44        
H_OH        H        0.2561934815800019        0.3744271404383714        0.2959074566473988        0.44        
H_OH        H        0.27123310829197667        0.4716181574201551        0.2959074566473988        0.44        
H_OH        H        0.2448139818514303        0.5969161801549856        0.2959074566473988        0.44        
H_OH        H        0.39377485536269285        0.03188178629145461        0.2959074566473988        0.44        
H_OH        H        0.38842579575957137        0.1486061405267023        0.2959074566473988        0.44        
H_OH        H        0.39320713301603794        0.2549075645214365        0.2959074566473988        0.44        
H_OH        H        0.3834182990554101        0.37365511200241885        0.2959074566473988        0.44        
H_OH        H        0.3604968062360241        0.48108428327348085        0.2959074566473988        0.44        
H_OH        H        0.3725948284353497        0.5973981131336199        0.2959074566473988        0.44        
H_OH        H        0.5192247160741915        0.031189748867557224        0.2959074566473988        0.44        
H_OH        H        0.4851405527029699        0.14744449895545494        0.2959074566473988        0.44        
H_OH        H        0.4771636609568129        0.2414110068182319        0.2959074566473988        0.44        
H_OH        H        0.515860752979869        0.3687320945383608        0.2959074566473988        0.44        
H_OH        H        0.4821384359117953        0.47758585167796985        0.2959074566473988        0.44        
H_OH        H        0.5216191692972854        0.5816563055367393        0.2959074566473988        0.44        
H_OH        H        0.6252159227414644        0.041971403195771216        0.2959074566473988        0.44        
H_OH        H        0.64783698677262        0.1302763204568473        0.2959074566473988        0.44        
H_OH        H        0.6377207959805256        0.260222301320547        0.2959074566473988        0.44        
H_OH        H        0.6405884911729829        0.36899731046081313        0.2959074566473988        0.44        
H_OH        H        0.6027418648176488        0.4682477422785823        0.2959074566473988        0.44        
H_OH        H        0.6107242179942415        0.5923856102363259        0.2959074566473988        0.44        
H_OH        H        0.7526574081066183        0.04181324370480649        0.2959074566473988        0.44        
H_OH        H        0.7719915978306157        0.13598284212279682        0.2959074566473988        0.44        
H_OH        H        0.7274001067270545        0.2441719392007779        0.2959074566473988        0.44        
H_OH        H        0.7659590178697532        0.36863420018004        0.2959074566473988        0.44        
H_OH        H        0.7273579961536651        0.4660876540620135        0.2959074566473988        0.44        
H_OH        H        0.7274357265199314        0.5777447164275876        0.2959074566473988        0.44        
H_OH        H        0.8850154850809484        0.03959851869442349        0.2959074566473988        0.44        
H_OH        H        0.853454141104403        0.13742815703690084        0.2959074566473988        0.44        
H_OH        H        0.8521640373254672        0.24142439267880092        0.2959074566473988        0.44        
H_OH        H        0.8969460298601334        0.3583688013033044        0.2959074566473988        0.44        
H_OH        H        0.8695424504916365        0.48573740730550957        0.2959074566473988        0.44        
H_OH        H        0.8861328382724336        0.5945552812685504        0.2959074566473988        0.44        
H_OH        H        -0.022549471823273128        0.688950383033924        0.2959074566473988        0.44        
H_OH        H        0.11221767150067287        0.7046248070865619        0.2959074566473988        0.44        
H_OH        H        0.25344111200451075        0.7083718721691453        0.2959074566473988        0.44        
H_OH        H        0.3911000648668738        0.7018256095668709        0.2959074566473988        0.44        
H_OH        H        0.4801365403889447        0.6967719579412942        0.2959074566473988        0.44        
H_OH        H        0.634034727560088        0.7067275202157312        0.2959074566473988        0.44        
H_OH        H        0.7721941448818056        0.6907471491911361        0.2959074566473988        0.44        
H_OH        H        0.8729323642964825        0.7085431988415463        0.2959074566473988        0.44        
H_OH        H        -0.01638139244925429        0.8126446602863151        0.2959074566473988        0.44        
H_OH        H        0.10479819281393371        0.80724905698414        0.2959074566473988        0.44        
H_OH        H        0.2454908627175345        0.8192890811887178        0.2959074566473988        0.44        
H_OH        H        0.3612846294595919        0.8150536192427273        0.2959074566473988        0.44        
H_OH        H        0.4846483803121479        0.8136661001890524        0.2959074566473988        0.44        
H_OH        H        0.603087109777234        0.8029302897590643        0.2959074566473988        0.44        
H_OH        H        0.728443934136131        0.8040653713497453        0.2959074566473988        0.44        
H_OH        H        0.872852499792897        0.8196466027321089        0.2959074566473988        0.44        
H_OH        H        0.001984624666112267        0.9307727866761475        0.2959074566473988        0.44        
H_OH        H        0.14719016130174792        0.912985877871698        0.2959074566473988        0.44        
H_OH        H        0.25653093728041987        0.9298826863625933        0.2959074566473988        0.44        
H_OH        H        0.35221815368973325        0.9091597979677035        0.2959074566473988        0.44        
H_OH        H        0.5226243537327748        0.9106646080238624        0.2959074566473988        0.44        
H_OH        H        0.6471317891638064        0.9132251623694304        0.2959074566473988        0.44        
H_OH        H        0.7277549045166225        0.9127502932864116        0.2959074566473988        0.44        
H_OH        H        0.8797369672174128        0.9303517503910116        0.2959074566473988        0.44        
