data_graphite_ortho

_audit_creation_method RASPA-1.0
_audit_creation_date 2012-2-3
_audit_author_name 'David Dubbeldam'

_cell_length_a    39.36    
_cell_length_b    38.34    
_cell_length_c    55.9    
_cell_angle_alpha 90
_cell_angle_beta  90
_cell_angle_gamma 90
_cell_volume      84356.59      

_symmetry_cell_setting          triclinic
_symmetry_space_group_name_Hall 'P 1'
_symmetry_space_group_name_H-M  'P 1'
_symmetry_Int_Tables_number     1

_symmetry_equiv_pos_as_xyz 'x,y,z'

loop_
_atom_site_label
_atom_site_type_symbol
_atom_site_fract_x
_atom_site_fract_y
_atom_site_fract_z
_atom_site_charge
C1        C        0.0        0.018519        0.214669        0        
C2        C        0.03125        0.074075        0.214669        0        
C3        C        0.0        0.092592        0.214669        0        
C4        C        0.03125        0.037037        0.214669        0        
C1        C        0.0        0.12963        0.214669        0        
C2        C        0.03125        0.185185        0.214669        0        
C3        C        0.0        0.203703        0.214669        0        
C4        C        0.03125        0.148148        0.214669        0        
C1        C        0.0        0.24074099999999998        0.214669        0        
C2        C        0.03125        0.296297        0.214669        0        
C3        C        0.0        0.314815        0.214669        0        
C4        C        0.03125        0.259259        0.214669        0        
C1        C        0.0        0.351852        0.214669        0        
C2        C        0.03125        0.407408        0.214669        0        
C3        C        0.0        0.42592500000000005        0.214669        0        
C4        C        0.03125        0.37037        0.214669        0        
C1        C        0.0        0.46296300000000007        0.214669        0        
C2        C        0.03125        0.518519        0.214669        0        
C3        C        0.0        0.537037        0.214669        0        
C4        C        0.03125        0.481481        0.214669        0        
C1        C        0.0        0.574075        0.214669        0        
C2        C        0.03125        0.62963        0.214669        0        
C3        C        0.0        0.648148        0.214669        0        
C4        C        0.03125        0.592592        0.214669        0        
C1        C        0.0625        0.018519        0.214669        0        
C2        C        0.09375        0.074075        0.214669        0        
C3        C        0.0625        0.092592        0.214669        0        
C4        C        0.09375        0.037037        0.214669        0        
C1        C        0.0625        0.12963        0.214669        0        
C2        C        0.09375        0.185185        0.214669        0        
C3        C        0.0625        0.203703        0.214669        0        
C4        C        0.09375        0.148148        0.214669        0        
C1        C        0.0625        0.24074099999999998        0.214669        0        
C2        C        0.09375        0.296297        0.214669        0        
C3        C        0.0625        0.314815        0.214669        0        
C4        C        0.09375        0.259259        0.214669        0        
C1        C        0.0625        0.351852        0.214669        0        
C2        C        0.09375        0.407408        0.214669        0        
C3        C        0.0625        0.42592500000000005        0.214669        0        
C4        C        0.09375        0.37037        0.214669        0        
C1        C        0.0625        0.46296300000000007        0.214669        0        
C2        C        0.09375        0.518519        0.214669        0        
C3        C        0.0625        0.537037        0.214669        0        
C4        C        0.09375        0.481481        0.214669        0        
C1        C        0.0625        0.574075        0.214669        0        
C2        C        0.09375        0.62963        0.214669        0        
C3        C        0.0625        0.648148        0.214669        0        
C4        C        0.09375        0.592592        0.214669        0        
C1        C        0.125        0.018519        0.214669        0        
C2        C        0.15625        0.074075        0.214669        0        
C3        C        0.125        0.092592        0.214669        0        
C4        C        0.15625        0.037037        0.214669        0        
C1        C        0.125        0.12963        0.214669        0        
C2        C        0.15625        0.185185        0.214669        0        
C3        C        0.125        0.203703        0.214669        0        
C4        C        0.15625        0.148148        0.214669        0        
C1        C        0.125        0.24074099999999998        0.214669        0        
C2        C        0.15625        0.296297        0.214669        0        
C3        C        0.125        0.314815        0.214669        0        
C4        C        0.15625        0.259259        0.214669        0        
C1        C        0.125        0.351852        0.214669        0        
C2        C        0.15625        0.407408        0.214669        0        
C3        C        0.125        0.42592500000000005        0.214669        0        
C4        C        0.15625        0.37037        0.214669        0        
C1        C        0.125        0.46296300000000007        0.214669        0        
C2        C        0.15625        0.518519        0.214669        0        
C3        C        0.125        0.537037        0.214669        0        
C4        C        0.15625        0.481481        0.214669        0        
C1        C        0.125        0.574075        0.214669        0        
C2        C        0.15625        0.62963        0.214669        0        
C3        C        0.125        0.648148        0.214669        0        
C4        C        0.15625        0.592592        0.214669        0        
C1        C        0.1875        0.018519        0.214669        0        
C2        C        0.21875        0.074075        0.214669        0        
C3        C        0.1875        0.092592        0.214669        0        
C4        C        0.21875        0.037037        0.214669        0        
C1        C        0.1875        0.12963        0.214669        0        
C2        C        0.21875        0.185185        0.214669        0        
C3        C        0.1875        0.203703        0.214669        0        
C4        C        0.21875        0.148148        0.214669        0        
C1        C        0.1875        0.24074099999999998        0.214669        0        
C2        C        0.21875        0.296297        0.214669        0        
C3        C        0.1875        0.314815        0.214669        0        
C4        C        0.21875        0.259259        0.214669        0        
C1        C        0.1875        0.351852        0.214669        0        
C2        C        0.21875        0.407408        0.214669        0        
C3        C        0.1875        0.42592500000000005        0.214669        0        
C4        C        0.21875        0.37037        0.214669        0        
C1        C        0.1875        0.46296300000000007        0.214669        0        
C2        C        0.21875        0.518519        0.214669        0        
C3        C        0.1875        0.537037        0.214669        0        
C4        C        0.21875        0.481481        0.214669        0        
C1        C        0.1875        0.574075        0.214669        0        
C2        C        0.21875        0.62963        0.214669        0        
C3        C        0.1875        0.648148        0.214669        0        
C4        C        0.21875        0.592592        0.214669        0        
C1        C        0.25        0.018519        0.214669        0        
C2        C        0.28125        0.074075        0.214669        0        
C3        C        0.25        0.092592        0.214669        0        
C4        C        0.28125        0.037037        0.214669        0        
C1        C        0.25        0.12963        0.214669        0        
C2        C        0.28125        0.185185        0.214669        0        
C3        C        0.25        0.203703        0.214669        0        
C4        C        0.28125        0.148148        0.214669        0        
C1        C        0.25        0.24074099999999998        0.214669        0        
C2        C        0.28125        0.296297        0.214669        0        
C3        C        0.25        0.314815        0.214669        0        
C4        C        0.28125        0.259259        0.214669        0        
C1        C        0.25        0.351852        0.214669        0        
C2        C        0.28125        0.407408        0.214669        0        
C3        C        0.25        0.42592500000000005        0.214669        0        
C4        C        0.28125        0.37037        0.214669        0        
C1        C        0.25        0.46296300000000007        0.214669        0        
C2        C        0.28125        0.518519        0.214669        0        
C3        C        0.25        0.537037        0.214669        0        
C4        C        0.28125        0.481481        0.214669        0        
C1        C        0.25        0.574075        0.214669        0        
C2        C        0.28125        0.62963        0.214669        0        
C3        C        0.25        0.648148        0.214669        0        
C4        C        0.28125        0.592592        0.214669        0        
C1        C        0.3125        0.018519        0.214669        0        
C2        C        0.34375        0.074075        0.214669        0        
C3        C        0.3125        0.092592        0.214669        0        
C4        C        0.34375        0.037037        0.214669        0        
C1        C        0.3125        0.12963        0.214669        0        
C2        C        0.34375        0.185185        0.214669        0        
C3        C        0.3125        0.203703        0.214669        0        
C4        C        0.34375        0.148148        0.214669        0        
C1        C        0.3125        0.24074099999999998        0.214669        0        
C2        C        0.34375        0.296297        0.214669        0        
C3        C        0.3125        0.314815        0.214669        0        
C4        C        0.34375        0.259259        0.214669        0        
C1        C        0.3125        0.351852        0.214669        0        
C2        C        0.34375        0.407408        0.214669        0        
C3        C        0.3125        0.42592500000000005        0.214669        0        
C4        C        0.34375        0.37037        0.214669        0        
C1        C        0.3125        0.46296300000000007        0.214669        0        
C2        C        0.34375        0.518519        0.214669        0        
C3        C        0.3125        0.537037        0.214669        0        
C4        C        0.34375        0.481481        0.214669        0        
C1        C        0.3125        0.574075        0.214669        0        
C2        C        0.34375        0.62963        0.214669        0        
C3        C        0.3125        0.648148        0.214669        0        
C4        C        0.34375        0.592592        0.214669        0        
C1        C        0.375        0.018519        0.214669        0        
C2        C        0.40625        0.074075        0.214669        0        
C3        C        0.375        0.092592        0.214669        0        
C4        C        0.40625        0.037037        0.214669        0        
C1        C        0.375        0.12963        0.214669        0        
C2        C        0.40625        0.185185        0.214669        0        
C3        C        0.375        0.203703        0.214669        0        
C4        C        0.40625        0.148148        0.214669        0        
C1        C        0.375        0.24074099999999998        0.214669        0        
C2        C        0.40625        0.296297        0.214669        0        
C3        C        0.375        0.314815        0.214669        0        
C4        C        0.40625        0.259259        0.214669        0        
C1        C        0.375        0.351852        0.214669        0        
C2        C        0.40625        0.407408        0.214669        0        
C3        C        0.375        0.42592500000000005        0.214669        0        
C4        C        0.40625        0.37037        0.214669        0        
C1        C        0.375        0.46296300000000007        0.214669        0        
C2        C        0.40625        0.518519        0.214669        0        
C3        C        0.375        0.537037        0.214669        0        
C4        C        0.40625        0.481481        0.214669        0        
C1        C        0.375        0.574075        0.214669        0        
C2        C        0.40625        0.62963        0.214669        0        
C3        C        0.375        0.648148        0.214669        0        
C4        C        0.40625        0.592592        0.214669        0        
C1        C        0.4375        0.018519        0.214669        0        
C2        C        0.46875        0.074075        0.214669        0        
C3        C        0.4375        0.092592        0.214669        0        
C4        C        0.46875        0.037037        0.214669        0        
C1        C        0.4375        0.12963        0.214669        0        
C2        C        0.46875        0.185185        0.214669        0        
C3        C        0.4375        0.203703        0.214669        0        
C4        C        0.46875        0.148148        0.214669        0        
C1        C        0.4375        0.24074099999999998        0.214669        0        
C2        C        0.46875        0.296297        0.214669        0        
C3        C        0.4375        0.314815        0.214669        0        
C4        C        0.46875        0.259259        0.214669        0        
C1        C        0.4375        0.351852        0.214669        0        
C2        C        0.46875        0.407408        0.214669        0        
C3        C        0.4375        0.42592500000000005        0.214669        0        
C4        C        0.46875        0.37037        0.214669        0        
C1        C        0.4375        0.46296300000000007        0.214669        0        
C2        C        0.46875        0.518519        0.214669        0        
C3        C        0.4375        0.537037        0.214669        0        
C4        C        0.46875        0.481481        0.214669        0        
C1        C        0.4375        0.574075        0.214669        0        
C2        C        0.46875        0.62963        0.214669        0        
C3        C        0.4375        0.648148        0.214669        0        
C4        C        0.46875        0.592592        0.214669        0        
C1        C        0.5        0.018519        0.214669        0        
C2        C        0.53125        0.074075        0.214669        0        
C3        C        0.5        0.092592        0.214669        0        
C4        C        0.53125        0.037037        0.214669        0        
C1        C        0.5        0.12963        0.214669        0        
C2        C        0.53125        0.185185        0.214669        0        
C3        C        0.5        0.203703        0.214669        0        
C4        C        0.53125        0.148148        0.214669        0        
C1        C        0.5        0.24074099999999998        0.214669        0        
C2        C        0.53125        0.296297        0.214669        0        
C3        C        0.5        0.314815        0.214669        0        
C4        C        0.53125        0.259259        0.214669        0        
C1        C        0.5        0.351852        0.214669        0        
C2        C        0.53125        0.407408        0.214669        0        
C3        C        0.5        0.42592500000000005        0.214669        0        
C4        C        0.53125        0.37037        0.214669        0        
C1        C        0.5        0.46296300000000007        0.214669        0        
C2        C        0.53125        0.518519        0.214669        0        
C3        C        0.5        0.537037        0.214669        0        
C4        C        0.53125        0.481481        0.214669        0        
C1        C        0.5        0.574075        0.214669        0        
C2        C        0.53125        0.62963        0.214669        0        
C3        C        0.5        0.648148        0.214669        0        
C4        C        0.53125        0.592592        0.214669        0        
C1        C        0.5625        0.018519        0.214669        0        
C2        C        0.59375        0.074075        0.214669        0        
C3        C        0.5625        0.092592        0.214669        0        
C4        C        0.59375        0.037037        0.214669        0        
C1        C        0.5625        0.12963        0.214669        0        
C2        C        0.59375        0.185185        0.214669        0        
C3        C        0.5625        0.203703        0.214669        0        
C4        C        0.59375        0.148148        0.214669        0        
C1        C        0.5625        0.24074099999999998        0.214669        0        
C2        C        0.59375        0.296297        0.214669        0        
C3        C        0.5625        0.314815        0.214669        0        
C4        C        0.59375        0.259259        0.214669        0        
C1        C        0.5625        0.351852        0.214669        0        
C2        C        0.59375        0.407408        0.214669        0        
C3        C        0.5625        0.42592500000000005        0.214669        0        
C4        C        0.59375        0.37037        0.214669        0        
C1        C        0.5625        0.46296300000000007        0.214669        0        
C2        C        0.59375        0.518519        0.214669        0        
C3        C        0.5625        0.537037        0.214669        0        
C4        C        0.59375        0.481481        0.214669        0        
C1        C        0.5625        0.574075        0.214669        0        
C2        C        0.59375        0.62963        0.214669        0        
C3        C        0.5625        0.648148        0.214669        0        
C4        C        0.59375        0.592592        0.214669        0        
C1        C        0.625        0.018519        0.214669        0        
C2        C        0.65625        0.074075        0.214669        0        
C3        C        0.625        0.092592        0.214669        0        
C4        C        0.65625        0.037037        0.214669        0        
C1        C        0.625        0.12963        0.214669        0        
C2        C        0.65625        0.185185        0.214669        0        
C3        C        0.625        0.203703        0.214669        0        
C4        C        0.65625        0.148148        0.214669        0        
C1        C        0.625        0.24074099999999998        0.214669        0        
C2        C        0.65625        0.296297        0.214669        0        
C3        C        0.625        0.314815        0.214669        0        
C4        C        0.65625        0.259259        0.214669        0        
C1        C        0.625        0.351852        0.214669        0        
C2        C        0.65625        0.407408        0.214669        0        
C3        C        0.625        0.42592500000000005        0.214669        0        
C4        C        0.65625        0.37037        0.214669        0        
C1        C        0.625        0.46296300000000007        0.214669        0        
C2        C        0.65625        0.518519        0.214669        0        
C3        C        0.625        0.537037        0.214669        0        
C4        C        0.65625        0.481481        0.214669        0        
C1        C        0.625        0.574075        0.214669        0        
C2        C        0.65625        0.62963        0.214669        0        
C3        C        0.625        0.648148        0.214669        0        
C4        C        0.65625        0.592592        0.214669        0        
C1        C        0.6875        0.018519        0.214669        0        
C2        C        0.71875        0.074075        0.214669        0        
C3        C        0.6875        0.092592        0.214669        0        
C4        C        0.71875        0.037037        0.214669        0        
C1        C        0.6875        0.12963        0.214669        0        
C2        C        0.71875        0.185185        0.214669        0        
C3        C        0.6875        0.203703        0.214669        0        
C4        C        0.71875        0.148148        0.214669        0        
C1        C        0.6875        0.24074099999999998        0.214669        0        
C2        C        0.71875        0.296297        0.214669        0        
C3        C        0.6875        0.314815        0.214669        0        
C4        C        0.71875        0.259259        0.214669        0        
C1        C        0.6875        0.351852        0.214669        0        
C2        C        0.71875        0.407408        0.214669        0        
C3        C        0.6875        0.42592500000000005        0.214669        0        
C4        C        0.71875        0.37037        0.214669        0        
C1        C        0.6875        0.46296300000000007        0.214669        0        
C2        C        0.71875        0.518519        0.214669        0        
C3        C        0.6875        0.537037        0.214669        0        
C4        C        0.71875        0.481481        0.214669        0        
C1        C        0.6875        0.574075        0.214669        0        
C2        C        0.71875        0.62963        0.214669        0        
C3        C        0.6875        0.648148        0.214669        0        
C4        C        0.71875        0.592592        0.214669        0        
C1        C        0.75        0.018519        0.214669        0        
C2        C        0.78125        0.074075        0.214669        0        
C3        C        0.75        0.092592        0.214669        0        
C4        C        0.78125        0.037037        0.214669        0        
C1        C        0.75        0.12963        0.214669        0        
C2        C        0.78125        0.185185        0.214669        0        
C3        C        0.75        0.203703        0.214669        0        
C4        C        0.78125        0.148148        0.214669        0        
C1        C        0.75        0.24074099999999998        0.214669        0        
C2        C        0.78125        0.296297        0.214669        0        
C3        C        0.75        0.314815        0.214669        0        
C4        C        0.78125        0.259259        0.214669        0        
C1        C        0.75        0.351852        0.214669        0        
C2        C        0.78125        0.407408        0.214669        0        
C3        C        0.75        0.42592500000000005        0.214669        0        
C4        C        0.78125        0.37037        0.214669        0        
C1        C        0.75        0.46296300000000007        0.214669        0        
C2        C        0.78125        0.518519        0.214669        0        
C3        C        0.75        0.537037        0.214669        0        
C4        C        0.78125        0.481481        0.214669        0        
C1        C        0.75        0.574075        0.214669        0        
C2        C        0.78125        0.62963        0.214669        0        
C3        C        0.75        0.648148        0.214669        0        
C4        C        0.78125        0.592592        0.214669        0        
C1        C        0.8125        0.018519        0.214669        0        
C2        C        0.84375        0.074075        0.214669        0        
C3        C        0.8125        0.092592        0.214669        0        
C4        C        0.84375        0.037037        0.214669        0        
C1        C        0.8125        0.12963        0.214669        0        
C2        C        0.84375        0.185185        0.214669        0        
C3        C        0.8125        0.203703        0.214669        0        
C4        C        0.84375        0.148148        0.214669        0        
C1        C        0.8125        0.24074099999999998        0.214669        0        
C2        C        0.84375        0.296297        0.214669        0        
C3        C        0.8125        0.314815        0.214669        0        
C4        C        0.84375        0.259259        0.214669        0        
C1        C        0.8125        0.351852        0.214669        0        
C2        C        0.84375        0.407408        0.214669        0        
C3        C        0.8125        0.42592500000000005        0.214669        0        
C4        C        0.84375        0.37037        0.214669        0        
C1        C        0.8125        0.46296300000000007        0.214669        0        
C2        C        0.84375        0.518519        0.214669        0        
C3        C        0.8125        0.537037        0.214669        0        
C4        C        0.84375        0.481481        0.214669        0        
C1        C        0.8125        0.574075        0.214669        0        
C2        C        0.84375        0.62963        0.214669        0        
C3        C        0.8125        0.648148        0.214669        0        
C4        C        0.84375        0.592592        0.214669        0        
C1        C        0.875        0.018519        0.214669        0        
C2        C        0.9062500000000001        0.074075        0.214669        0        
C3        C        0.875        0.092592        0.214669        0        
C4        C        0.9062500000000001        0.037037        0.214669        0        
C1        C        0.875        0.12963        0.214669        0        
C2        C        0.9062500000000001        0.185185        0.214669        0        
C3        C        0.875        0.203703        0.214669        0        
C4        C        0.9062500000000001        0.148148        0.214669        0        
C1        C        0.875        0.24074099999999998        0.214669        0        
C2        C        0.9062500000000001        0.296297        0.214669        0        
C3        C        0.875        0.314815        0.214669        0        
C4        C        0.9062500000000001        0.259259        0.214669        0        
C1        C        0.875        0.351852        0.214669        0        
C2        C        0.9062500000000001        0.407408        0.214669        0        
C3        C        0.875        0.42592500000000005        0.214669        0        
C4        C        0.9062500000000001        0.37037        0.214669        0        
C1        C        0.875        0.46296300000000007        0.214669        0        
C2        C        0.9062500000000001        0.518519        0.214669        0        
C3        C        0.875        0.537037        0.214669        0        
C4        C        0.9062500000000001        0.481481        0.214669        0        
C1        C        0.875        0.574075        0.214669        0        
C2        C        0.9062500000000001        0.62963        0.214669        0        
C3        C        0.875        0.648148        0.214669        0        
C4        C        0.9062500000000001        0.592592        0.214669        0        
C1        C        0.9375        0.018519        0.214669        0        
C2        C        0.9687500000000001        0.074075        0.214669        0        
C3        C        0.9375        0.092592        0.214669        0        
C4        C        0.9687500000000001        0.037037        0.214669        0        
C1        C        0.9375        0.12963        0.214669        0        
C2        C        0.9687500000000001        0.185185        0.214669        0        
C3        C        0.9375        0.203703        0.214669        0        
C4        C        0.9687500000000001        0.148148        0.214669        0        
C1        C        0.9375        0.24074099999999998        0.214669        0        
C2        C        0.9687500000000001        0.296297        0.214669        0        
C3        C        0.9375        0.314815        0.214669        0        
C4        C        0.9687500000000001        0.259259        0.214669        0        
C1        C        0.9375        0.351852        0.214669        0        
C2        C        0.9687500000000001        0.407408        0.214669        0        
C3        C        0.9375        0.42592500000000005        0.214669        0        
C4        C        0.9687500000000001        0.37037        0.214669        0        
C1        C        0.9375        0.46296300000000007        0.214669        0        
C2        C        0.9687500000000001        0.518519        0.214669        0        
C3        C        0.9375        0.537037        0.214669        0        
C4        C        0.9687500000000001        0.481481        0.214669        0        
C1        C        0.9375        0.574075        0.214669        0        
C2        C        0.9687500000000001        0.62963        0.214669        0        
C3        C        0.9375        0.648148        0.214669        0        
C4        C        0.9687500000000001        0.592592        0.214669        0        
C1        C        0.0        0.685186        0.214669        0        
C1        C        0.0625        0.685186        0.214669        0        
C1        C        0.125        0.685186        0.214669        0        
C1        C        0.1875        0.685186        0.214669        0        
C1        C        0.25        0.685186        0.214669        0        
C1        C        0.3125        0.685186        0.214669        0        
C1        C        0.375        0.685186        0.214669        0        
C1        C        0.4375        0.685186        0.214669        0        
C1        C        0.5        0.685186        0.214669        0        
C1        C        0.5625        0.685186        0.214669        0        
C1        C        0.625        0.685186        0.214669        0        
C1        C        0.6875        0.685186        0.214669        0        
C1        C        0.75        0.685186        0.214669        0        
C1        C        0.8125        0.685186        0.214669        0        
C1        C        0.875        0.685186        0.214669        0        
C1        C        0.9375        0.685186        0.214669        0        
C2        C        0.03125        0.740741        0.214669        0        
C2        C        0.09375        0.740741        0.214669        0        
C2        C        0.15625        0.740741        0.214669        0        
C2        C        0.21875        0.740741        0.214669        0        
C2        C        0.28125        0.740741        0.214669        0        
C2        C        0.34375        0.740741        0.214669        0        
C2        C        0.40625        0.740741        0.214669        0        
C2        C        0.46875        0.740741        0.214669        0        
C2        C        0.53125        0.740741        0.214669        0        
C2        C        0.59375        0.740741        0.214669        0        
C2        C        0.65625        0.740741        0.214669        0        
C2        C        0.71875        0.740741        0.214669        0        
C2        C        0.78125        0.740741        0.214669        0        
C2        C        0.84375        0.740741        0.214669        0        
C2        C        0.9062500000000001        0.740741        0.214669        0        
C2        C        0.9687500000000001        0.740741        0.214669        0        
C3        C        0.0        0.759259        0.214669        0        
C3        C        0.0625        0.759259        0.214669        0        
C3        C        0.125        0.759259        0.214669        0        
C3        C        0.1875        0.759259        0.214669        0        
C3        C        0.25        0.759259        0.214669        0        
C3        C        0.3125        0.759259        0.214669        0        
C3        C        0.375        0.759259        0.214669        0        
C3        C        0.4375        0.759259        0.214669        0        
C3        C        0.5        0.759259        0.214669        0        
C3        C        0.5625        0.759259        0.214669        0        
C3        C        0.625        0.759259        0.214669        0        
C3        C        0.6875        0.759259        0.214669        0        
C3        C        0.75        0.759259        0.214669        0        
C3        C        0.8125        0.759259        0.214669        0        
C3        C        0.875        0.759259        0.214669        0        
C3        C        0.9375        0.759259        0.214669        0        
C4        C        0.03125        0.703703        0.214669        0        
C4        C        0.09375        0.703703        0.214669        0        
C4        C        0.15625        0.703703        0.214669        0        
C4        C        0.21875        0.703703        0.214669        0        
C4        C        0.28125        0.703703        0.214669        0        
C4        C        0.34375        0.703703        0.214669        0        
C4        C        0.40625        0.703703        0.214669        0        
C4        C        0.46875        0.703703        0.214669        0        
C4        C        0.53125        0.703703        0.214669        0        
C4        C        0.59375        0.703703        0.214669        0        
C4        C        0.65625        0.703703        0.214669        0        
C4        C        0.71875        0.703703        0.214669        0        
C4        C        0.78125        0.703703        0.214669        0        
C4        C        0.84375        0.703703        0.214669        0        
C4        C        0.9062500000000001        0.703703        0.214669        0        
C4        C        0.9687500000000001        0.703703        0.214669        0        
C1        C        0.0        0.796297        0.214669        0        
C1        C        0.0625        0.796297        0.214669        0        
C1        C        0.125        0.796297        0.214669        0        
C1        C        0.1875        0.796297        0.214669        0        
C1        C        0.25        0.796297        0.214669        0        
C1        C        0.3125        0.796297        0.214669        0        
C1        C        0.375        0.796297        0.214669        0        
C1        C        0.4375        0.796297        0.214669        0        
C1        C        0.5        0.796297        0.214669        0        
C1        C        0.5625        0.796297        0.214669        0        
C1        C        0.625        0.796297        0.214669        0        
C1        C        0.6875        0.796297        0.214669        0        
C1        C        0.75        0.796297        0.214669        0        
C1        C        0.8125        0.796297        0.214669        0        
C1        C        0.875        0.796297        0.214669        0        
C1        C        0.9375        0.796297        0.214669        0        
C2        C        0.03125        0.851852        0.214669        0        
C2        C        0.09375        0.851852        0.214669        0        
C2        C        0.15625        0.851852        0.214669        0        
C2        C        0.21875        0.851852        0.214669        0        
C2        C        0.28125        0.851852        0.214669        0        
C2        C        0.34375        0.851852        0.214669        0        
C2        C        0.40625        0.851852        0.214669        0        
C2        C        0.46875        0.851852        0.214669        0        
C2        C        0.53125        0.851852        0.214669        0        
C2        C        0.59375        0.851852        0.214669        0        
C2        C        0.65625        0.851852        0.214669        0        
C2        C        0.71875        0.851852        0.214669        0        
C2        C        0.78125        0.851852        0.214669        0        
C2        C        0.84375        0.851852        0.214669        0        
C2        C        0.9062500000000001        0.851852        0.214669        0        
C2        C        0.9687500000000001        0.851852        0.214669        0        
C3        C        0.0        0.87037        0.214669        0        
C3        C        0.0625        0.87037        0.214669        0        
C3        C        0.125        0.87037        0.214669        0        
C3        C        0.1875        0.87037        0.214669        0        
C3        C        0.25        0.87037        0.214669        0        
C3        C        0.3125        0.87037        0.214669        0        
C3        C        0.375        0.87037        0.214669        0        
C3        C        0.4375        0.87037        0.214669        0        
C3        C        0.5        0.87037        0.214669        0        
C3        C        0.5625        0.87037        0.214669        0        
C3        C        0.625        0.87037        0.214669        0        
C3        C        0.6875        0.87037        0.214669        0        
C3        C        0.75        0.87037        0.214669        0        
C3        C        0.8125        0.87037        0.214669        0        
C3        C        0.875        0.87037        0.214669        0        
C3        C        0.9375        0.87037        0.214669        0        
C4        C        0.03125        0.814814        0.214669        0        
C4        C        0.09375        0.814814        0.214669        0        
C4        C        0.15625        0.814814        0.214669        0        
C4        C        0.21875        0.814814        0.214669        0        
C4        C        0.28125        0.814814        0.214669        0        
C4        C        0.34375        0.814814        0.214669        0        
C4        C        0.40625        0.814814        0.214669        0        
C4        C        0.46875        0.814814        0.214669        0        
C4        C        0.53125        0.814814        0.214669        0        
C4        C        0.59375        0.814814        0.214669        0        
C4        C        0.65625        0.814814        0.214669        0        
C4        C        0.71875        0.814814        0.214669        0        
C4        C        0.78125        0.814814        0.214669        0        
C4        C        0.84375        0.814814        0.214669        0        
C4        C        0.9062500000000001        0.814814        0.214669        0        
C4        C        0.9687500000000001        0.814814        0.214669        0        
C1        C        0.0        0.907408        0.214669        0        
C1        C        0.0625        0.907408        0.214669        0        
C1        C        0.125        0.907408        0.214669        0        
C1        C        0.1875        0.907408        0.214669        0        
C1        C        0.25        0.907408        0.214669        0        
C1        C        0.3125        0.907408        0.214669        0        
C1        C        0.375        0.907408        0.214669        0        
C1        C        0.4375        0.907408        0.214669        0        
C1        C        0.5        0.907408        0.214669        0        
C1        C        0.5625        0.907408        0.214669        0        
C1        C        0.625        0.907408        0.214669        0        
C1        C        0.6875        0.907408        0.214669        0        
C1        C        0.75        0.907408        0.214669        0        
C1        C        0.8125        0.907408        0.214669        0        
C1        C        0.875        0.907408        0.214669        0        
C1        C        0.9375        0.907408        0.214669        0        
C2        C        0.03125        0.962963        0.214669        0        
C2        C        0.09375        0.962963        0.214669        0        
C2        C        0.15625        0.962963        0.214669        0        
C2        C        0.21875        0.962963        0.214669        0        
C2        C        0.28125        0.962963        0.214669        0        
C2        C        0.34375        0.962963        0.214669        0        
C2        C        0.40625        0.962963        0.214669        0        
C2        C        0.46875        0.962963        0.214669        0        
C2        C        0.53125        0.962963        0.214669        0        
C2        C        0.59375        0.962963        0.214669        0        
C2        C        0.65625        0.962963        0.214669        0        
C2        C        0.71875        0.962963        0.214669        0        
C2        C        0.78125        0.962963        0.214669        0        
C2        C        0.84375        0.962963        0.214669        0        
C2        C        0.9062500000000001        0.962963        0.214669        0        
C2        C        0.9687500000000001        0.962963        0.214669        0        
C3        C        0.0        0.9814809999999999        0.214669        0        
C3        C        0.0625        0.9814809999999999        0.214669        0        
C3        C        0.125        0.9814809999999999        0.214669        0        
C3        C        0.1875        0.9814809999999999        0.214669        0        
C3        C        0.25        0.9814809999999999        0.214669        0        
C3        C        0.3125        0.9814809999999999        0.214669        0        
C3        C        0.375        0.9814809999999999        0.214669        0        
C3        C        0.4375        0.9814809999999999        0.214669        0        
C3        C        0.5        0.9814809999999999        0.214669        0        
C3        C        0.5625        0.9814809999999999        0.214669        0        
C3        C        0.625        0.9814809999999999        0.214669        0        
C3        C        0.6875        0.9814809999999999        0.214669        0        
C3        C        0.75        0.9814809999999999        0.214669        0        
C3        C        0.8125        0.9814809999999999        0.214669        0        
C3        C        0.875        0.9814809999999999        0.214669        0        
C3        C        0.9375        0.9814809999999999        0.214669        0        
C4        C        0.03125        0.925925        0.214669        0        
C4        C        0.09375        0.925925        0.214669        0        
C4        C        0.15625        0.925925        0.214669        0        
C4        C        0.21875        0.925925        0.214669        0        
C4        C        0.28125        0.925925        0.214669        0        
C4        C        0.34375        0.925925        0.214669        0        
C4        C        0.40625        0.925925        0.214669        0        
C4        C        0.46875        0.925925        0.214669        0        
C4        C        0.53125        0.925925        0.214669        0        
C4        C        0.59375        0.925925        0.214669        0        
C4        C        0.65625        0.925925        0.214669        0        
C4        C        0.71875        0.925925        0.214669        0        
C4        C        0.78125        0.925925        0.214669        0        
C4        C        0.84375        0.925925        0.214669        0        
C4        C        0.9062500000000001        0.925925        0.214669        0        
C4        C        0.9687500000000001        0.925925        0.214669        0        
C1        C        0.0        0.018519        0.274598        0        
C2        C        0.03125        0.074075        0.274598        0        
C3        C        0.0        0.092592        0.274598        0        
C4        C        0.03125        0.037037        0.274598        0        
C1        C        0.0        0.12963        0.274598        0        
C2        C        0.03125        0.185185        0.274598        0        
C3        C        0.0        0.203703        0.274598        0        
C4        C        0.03125        0.148148        0.274598        0        
C1        C        0.0        0.24074099999999998        0.274598        0        
C2        C        0.03125        0.296297        0.274598        0        
C3        C        0.0        0.314815        0.274598        0        
C4        C        0.03125        0.259259        0.274598        0        
C1        C        0.0        0.351852        0.274598        0        
C2        C        0.03125        0.407408        0.274598        0        
C3        C        0.0        0.42592500000000005        0.274598        0        
C4        C        0.03125        0.37037        0.274598        0        
C1        C        0.0        0.46296300000000007        0.274598        0        
C2        C        0.03125        0.518519        0.274598        0        
C3        C        0.0        0.537037        0.274598        0        
C4        C        0.03125        0.481481        0.274598        0        
C1        C        0.0        0.574075        0.274598        0        
C2        C        0.03125        0.62963        0.274598        0        
C3        C        0.0        0.648148        0.274598        0        
C4        C        0.03125        0.592592        0.274598        0        
C1        C        0.0625        0.018519        0.274598        0        
C2        C        0.09375        0.074075        0.274598        0        
C3        C        0.0625        0.092592        0.274598        0        
C4        C        0.09375        0.037037        0.274598        0        
C1        C        0.0625        0.12963        0.274598        0        
C2        C        0.09375        0.185185        0.274598        0        
C3        C        0.0625        0.203703        0.274598        0        
C4        C        0.09375        0.148148        0.274598        0        
C1        C        0.0625        0.24074099999999998        0.274598        0        
C2        C        0.09375        0.296297        0.274598        0        
C3        C        0.0625        0.314815        0.274598        0        
C4        C        0.09375        0.259259        0.274598        0        
C1        C        0.0625        0.351852        0.274598        0        
C2        C        0.09375        0.407408        0.274598        0        
C3        C        0.0625        0.42592500000000005        0.274598        0        
C4        C        0.09375        0.37037        0.274598        0        
C1        C        0.0625        0.46296300000000007        0.274598        0        
C2        C        0.09375        0.518519        0.274598        0        
C3        C        0.0625        0.537037        0.274598        0        
C4        C        0.09375        0.481481        0.274598        0        
C1        C        0.0625        0.574075        0.274598        0        
C2        C        0.09375        0.62963        0.274598        0        
C3        C        0.0625        0.648148        0.274598        0        
C4        C        0.09375        0.592592        0.274598        0        
C1        C        0.125        0.018519        0.274598        0        
C2        C        0.15625        0.074075        0.274598        0        
C3        C        0.125        0.092592        0.274598        0        
C4        C        0.15625        0.037037        0.274598        0        
C1        C        0.125        0.12963        0.274598        0        
C2        C        0.15625        0.185185        0.274598        0        
C3        C        0.125        0.203703        0.274598        0        
C4        C        0.15625        0.148148        0.274598        0        
C1        C        0.125        0.24074099999999998        0.274598        0        
C2        C        0.15625        0.296297        0.274598        0        
C3        C        0.125        0.314815        0.274598        0        
C4        C        0.15625        0.259259        0.274598        0        
C1        C        0.125        0.351852        0.274598        0        
C2        C        0.15625        0.407408        0.274598        0        
C3        C        0.125        0.42592500000000005        0.274598        0        
C4        C        0.15625        0.37037        0.274598        0        
C1        C        0.125        0.46296300000000007        0.274598        0        
C2        C        0.15625        0.518519        0.274598        0        
C3        C        0.125        0.537037        0.274598        0        
C4        C        0.15625        0.481481        0.274598        0        
C1        C        0.125        0.574075        0.274598        0        
C2        C        0.15625        0.62963        0.274598        0        
C3        C        0.125        0.648148        0.274598        0        
C4        C        0.15625        0.592592        0.274598        0        
C1        C        0.1875        0.018519        0.274598        0        
C2        C        0.21875        0.074075        0.274598        0        
C3        C        0.1875        0.092592        0.274598        0        
C4        C        0.21875        0.037037        0.274598        0        
C1        C        0.1875        0.12963        0.274598        0        
C2        C        0.21875        0.185185        0.274598        0        
C3        C        0.1875        0.203703        0.274598        0        
C4        C        0.21875        0.148148        0.274598        0        
C1        C        0.1875        0.24074099999999998        0.274598        0        
C2        C        0.21875        0.296297        0.274598        0        
C3        C        0.1875        0.314815        0.274598        0        
C4        C        0.21875        0.259259        0.274598        0        
C1        C        0.1875        0.351852        0.274598        0        
C2        C        0.21875        0.407408        0.274598        0        
C3        C        0.1875        0.42592500000000005        0.274598        0        
C4        C        0.21875        0.37037        0.274598        0        
C1        C        0.1875        0.46296300000000007        0.274598        0        
C2        C        0.21875        0.518519        0.274598        0        
C3        C        0.1875        0.537037        0.274598        0        
C4        C        0.21875        0.481481        0.274598        0        
C1        C        0.1875        0.574075        0.274598        0        
C2        C        0.21875        0.62963        0.274598        0        
C3        C        0.1875        0.648148        0.274598        0        
C4        C        0.21875        0.592592        0.274598        0        
C1        C        0.25        0.018519        0.274598        0        
C2        C        0.28125        0.074075        0.274598        0        
C3        C        0.25        0.092592        0.274598        0        
C4        C        0.28125        0.037037        0.274598        0        
C1        C        0.25        0.12963        0.274598        0        
C2        C        0.28125        0.185185        0.274598        0        
C3        C        0.25        0.203703        0.274598        0        
C4        C        0.28125        0.148148        0.274598        0        
C1        C        0.25        0.24074099999999998        0.274598        0        
C2        C        0.28125        0.296297        0.274598        0        
C3        C        0.25        0.314815        0.274598        0        
C4        C        0.28125        0.259259        0.274598        0        
C1        C        0.25        0.351852        0.274598        0        
C2        C        0.28125        0.407408        0.274598        0        
C3        C        0.25        0.42592500000000005        0.274598        0        
C4        C        0.28125        0.37037        0.274598        0        
C1        C        0.25        0.46296300000000007        0.274598        0        
C2        C        0.28125        0.518519        0.274598        0        
C3        C        0.25        0.537037        0.274598        0        
C4        C        0.28125        0.481481        0.274598        0        
C1        C        0.25        0.574075        0.274598        0        
C2        C        0.28125        0.62963        0.274598        0        
C3        C        0.25        0.648148        0.274598        0        
C4        C        0.28125        0.592592        0.274598        0        
C1        C        0.3125        0.018519        0.274598        0        
C2        C        0.34375        0.074075        0.274598        0        
C3        C        0.3125        0.092592        0.274598        0        
C4        C        0.34375        0.037037        0.274598        0        
C1        C        0.3125        0.12963        0.274598        0        
C2        C        0.34375        0.185185        0.274598        0        
C3        C        0.3125        0.203703        0.274598        0        
C4        C        0.34375        0.148148        0.274598        0        
C1        C        0.3125        0.24074099999999998        0.274598        0        
C2        C        0.34375        0.296297        0.274598        0        
C3        C        0.3125        0.314815        0.274598        0        
C4        C        0.34375        0.259259        0.274598        0        
C1        C        0.3125        0.351852        0.274598        0        
C2        C        0.34375        0.407408        0.274598        0        
C3        C        0.3125        0.42592500000000005        0.274598        0        
C4        C        0.34375        0.37037        0.274598        0        
C1        C        0.3125        0.46296300000000007        0.274598        0        
C2        C        0.34375        0.518519        0.274598        0        
C3        C        0.3125        0.537037        0.274598        0        
C4        C        0.34375        0.481481        0.274598        0        
C1        C        0.3125        0.574075        0.274598        0        
C2        C        0.34375        0.62963        0.274598        0        
C3        C        0.3125        0.648148        0.274598        0        
C4        C        0.34375        0.592592        0.274598        0        
C1        C        0.375        0.018519        0.274598        0        
C2        C        0.40625        0.074075        0.274598        0        
C3        C        0.375        0.092592        0.274598        0        
C4        C        0.40625        0.037037        0.274598        0        
C1        C        0.375        0.12963        0.274598        0        
C2        C        0.40625        0.185185        0.274598        0        
C3        C        0.375        0.203703        0.274598        0        
C4        C        0.40625        0.148148        0.274598        0        
C1        C        0.375        0.24074099999999998        0.274598        0        
C2        C        0.40625        0.296297        0.274598        0        
C3        C        0.375        0.314815        0.274598        0        
C4        C        0.40625        0.259259        0.274598        0        
C1        C        0.375        0.351852        0.274598        0        
C2        C        0.40625        0.407408        0.274598        0        
C3        C        0.375        0.42592500000000005        0.274598        0        
C4        C        0.40625        0.37037        0.274598        0        
C1        C        0.375        0.46296300000000007        0.274598        0        
C2        C        0.40625        0.518519        0.274598        0        
C3        C        0.375        0.537037        0.274598        0        
C4        C        0.40625        0.481481        0.274598        0        
C1        C        0.375        0.574075        0.274598        0        
C2        C        0.40625        0.62963        0.274598        0        
C3        C        0.375        0.648148        0.274598        0        
C4        C        0.40625        0.592592        0.274598        0        
C1        C        0.4375        0.018519        0.274598        0        
C2        C        0.46875        0.074075        0.274598        0        
C3        C        0.4375        0.092592        0.274598        0        
C4        C        0.46875        0.037037        0.274598        0        
C1        C        0.4375        0.12963        0.274598        0        
C2        C        0.46875        0.185185        0.274598        0        
C3        C        0.4375        0.203703        0.274598        0        
C4        C        0.46875        0.148148        0.274598        0        
C1        C        0.4375        0.24074099999999998        0.274598        0        
C2        C        0.46875        0.296297        0.274598        0        
C3        C        0.4375        0.314815        0.274598        0        
C4        C        0.46875        0.259259        0.274598        0        
C1        C        0.4375        0.351852        0.274598        0        
C2        C        0.46875        0.407408        0.274598        0        
C3        C        0.4375        0.42592500000000005        0.274598        0        
C4        C        0.46875        0.37037        0.274598        0        
C1        C        0.4375        0.46296300000000007        0.274598        0        
C2        C        0.46875        0.518519        0.274598        0        
C3        C        0.4375        0.537037        0.274598        0        
C4        C        0.46875        0.481481        0.274598        0        
C1        C        0.4375        0.574075        0.274598        0        
C2        C        0.46875        0.62963        0.274598        0        
C3        C        0.4375        0.648148        0.274598        0        
C4        C        0.46875        0.592592        0.274598        0        
C1        C        0.5        0.018519        0.274598        0        
C2        C        0.53125        0.074075        0.274598        0        
C3        C        0.5        0.092592        0.274598        0        
C4        C        0.53125        0.037037        0.274598        0        
C1        C        0.5        0.12963        0.274598        0        
C2        C        0.53125        0.185185        0.274598        0        
C3        C        0.5        0.203703        0.274598        0        
C4        C        0.53125        0.148148        0.274598        0        
C1        C        0.5        0.24074099999999998        0.274598        0        
C2        C        0.53125        0.296297        0.274598        0        
C3        C        0.5        0.314815        0.274598        0        
C4        C        0.53125        0.259259        0.274598        0        
C1        C        0.5        0.351852        0.274598        0        
C2        C        0.53125        0.407408        0.274598        0        
C3        C        0.5        0.42592500000000005        0.274598        0        
C4        C        0.53125        0.37037        0.274598        0        
C1        C        0.5        0.46296300000000007        0.274598        0        
C2        C        0.53125        0.518519        0.274598        0        
C3        C        0.5        0.537037        0.274598        0        
C4        C        0.53125        0.481481        0.274598        0        
C1        C        0.5        0.574075        0.274598        0        
C2        C        0.53125        0.62963        0.274598        0        
C3        C        0.5        0.648148        0.274598        0        
C4        C        0.53125        0.592592        0.274598        0        
C1        C        0.5625        0.018519        0.274598        0        
C2        C        0.59375        0.074075        0.274598        0        
C3        C        0.5625        0.092592        0.274598        0        
C4        C        0.59375        0.037037        0.274598        0        
C1        C        0.5625        0.12963        0.274598        0        
C2        C        0.59375        0.185185        0.274598        0        
C3        C        0.5625        0.203703        0.274598        0        
C4        C        0.59375        0.148148        0.274598        0        
C1        C        0.5625        0.24074099999999998        0.274598        0        
C2        C        0.59375        0.296297        0.274598        0        
C3        C        0.5625        0.314815        0.274598        0        
C4        C        0.59375        0.259259        0.274598        0        
C1        C        0.5625        0.351852        0.274598        0        
C2        C        0.59375        0.407408        0.274598        0        
C3        C        0.5625        0.42592500000000005        0.274598        0        
C4        C        0.59375        0.37037        0.274598        0        
C1        C        0.5625        0.46296300000000007        0.274598        0        
C2        C        0.59375        0.518519        0.274598        0        
C3        C        0.5625        0.537037        0.274598        0        
C4        C        0.59375        0.481481        0.274598        0        
C1        C        0.5625        0.574075        0.274598        0        
C2        C        0.59375        0.62963        0.274598        0        
C3        C        0.5625        0.648148        0.274598        0        
C4        C        0.59375        0.592592        0.274598        0        
C1        C        0.625        0.018519        0.274598        0        
C2        C        0.65625        0.074075        0.274598        0        
C3        C        0.625        0.092592        0.274598        0        
C4        C        0.65625        0.037037        0.274598        0        
C1        C        0.625        0.12963        0.274598        0        
C2        C        0.65625        0.185185        0.274598        0        
C3        C        0.625        0.203703        0.274598        0        
C4        C        0.65625        0.148148        0.274598        0        
C1        C        0.625        0.24074099999999998        0.274598        0        
C2        C        0.65625        0.296297        0.274598        0        
C3        C        0.625        0.314815        0.274598        0        
C4        C        0.65625        0.259259        0.274598        0        
C1        C        0.625        0.351852        0.274598        0        
C2        C        0.65625        0.407408        0.274598        0        
C3        C        0.625        0.42592500000000005        0.274598        0        
C4        C        0.65625        0.37037        0.274598        0        
C1        C        0.625        0.46296300000000007        0.274598        0        
C2        C        0.65625        0.518519        0.274598        0        
C3        C        0.625        0.537037        0.274598        0        
C4        C        0.65625        0.481481        0.274598        0        
C1        C        0.625        0.574075        0.274598        0        
C2        C        0.65625        0.62963        0.274598        0        
C3        C        0.625        0.648148        0.274598        0        
C4        C        0.65625        0.592592        0.274598        0        
C1        C        0.6875        0.018519        0.274598        0        
C2        C        0.71875        0.074075        0.274598        0        
C3        C        0.6875        0.092592        0.274598        0        
C4        C        0.71875        0.037037        0.274598        0        
C1        C        0.6875        0.12963        0.274598        0        
C2        C        0.71875        0.185185        0.274598        0        
C3        C        0.6875        0.203703        0.274598        0        
C4        C        0.71875        0.148148        0.274598        0        
C1        C        0.6875        0.24074099999999998        0.274598        0        
C2        C        0.71875        0.296297        0.274598        0        
C3        C        0.6875        0.314815        0.274598        0        
C4        C        0.71875        0.259259        0.274598        0        
C1        C        0.6875        0.351852        0.274598        0        
C2        C        0.71875        0.407408        0.274598        0        
C3        C        0.6875        0.42592500000000005        0.274598        0        
C4        C        0.71875        0.37037        0.274598        0        
C1        C        0.6875        0.46296300000000007        0.274598        0        
C2        C        0.71875        0.518519        0.274598        0        
C3        C        0.6875        0.537037        0.274598        0        
C4        C        0.71875        0.481481        0.274598        0        
C1        C        0.6875        0.574075        0.274598        0        
C2        C        0.71875        0.62963        0.274598        0        
C3        C        0.6875        0.648148        0.274598        0        
C4        C        0.71875        0.592592        0.274598        0        
C1        C        0.75        0.018519        0.274598        0        
C2        C        0.78125        0.074075        0.274598        0        
C3        C        0.75        0.092592        0.274598        0        
C4        C        0.78125        0.037037        0.274598        0        
C1        C        0.75        0.12963        0.274598        0        
C2        C        0.78125        0.185185        0.274598        0        
C3        C        0.75        0.203703        0.274598        0        
C4        C        0.78125        0.148148        0.274598        0        
C1        C        0.75        0.24074099999999998        0.274598        0        
C2        C        0.78125        0.296297        0.274598        0        
C3        C        0.75        0.314815        0.274598        0        
C4        C        0.78125        0.259259        0.274598        0        
C1        C        0.75        0.351852        0.274598        0        
C2        C        0.78125        0.407408        0.274598        0        
C3        C        0.75        0.42592500000000005        0.274598        0        
C4        C        0.78125        0.37037        0.274598        0        
C1        C        0.75        0.46296300000000007        0.274598        0        
C2        C        0.78125        0.518519        0.274598        0        
C3        C        0.75        0.537037        0.274598        0        
C4        C        0.78125        0.481481        0.274598        0        
C1        C        0.75        0.574075        0.274598        0        
C2        C        0.78125        0.62963        0.274598        0        
C3        C        0.75        0.648148        0.274598        0        
C4        C        0.78125        0.592592        0.274598        0        
C1        C        0.8125        0.018519        0.274598        0        
C2        C        0.84375        0.074075        0.274598        0        
C3        C        0.8125        0.092592        0.274598        0        
C4        C        0.84375        0.037037        0.274598        0        
C1        C        0.8125        0.12963        0.274598        0        
C2        C        0.84375        0.185185        0.274598        0        
C3        C        0.8125        0.203703        0.274598        0        
C4        C        0.84375        0.148148        0.274598        0        
C1        C        0.8125        0.24074099999999998        0.274598        0        
C2        C        0.84375        0.296297        0.274598        0        
C3        C        0.8125        0.314815        0.274598        0        
C4        C        0.84375        0.259259        0.274598        0        
C1        C        0.8125        0.351852        0.274598        0        
C2        C        0.84375        0.407408        0.274598        0        
C3        C        0.8125        0.42592500000000005        0.274598        0        
C4        C        0.84375        0.37037        0.274598        0        
C1        C        0.8125        0.46296300000000007        0.274598        0        
C2        C        0.84375        0.518519        0.274598        0        
C3        C        0.8125        0.537037        0.274598        0        
C4        C        0.84375        0.481481        0.274598        0        
C1        C        0.8125        0.574075        0.274598        0        
C2        C        0.84375        0.62963        0.274598        0        
C3        C        0.8125        0.648148        0.274598        0        
C4        C        0.84375        0.592592        0.274598        0        
C1        C        0.875        0.018519        0.274598        0        
C2        C        0.9062500000000001        0.074075        0.274598        0        
C3        C        0.875        0.092592        0.274598        0        
C4        C        0.9062500000000001        0.037037        0.274598        0        
C1        C        0.875        0.12963        0.274598        0        
C2        C        0.9062500000000001        0.185185        0.274598        0        
C3        C        0.875        0.203703        0.274598        0        
C4        C        0.9062500000000001        0.148148        0.274598        0        
C1        C        0.875        0.24074099999999998        0.274598        0        
C2        C        0.9062500000000001        0.296297        0.274598        0        
C3        C        0.875        0.314815        0.274598        0        
C4        C        0.9062500000000001        0.259259        0.274598        0        
C1        C        0.875        0.351852        0.274598        0        
C2        C        0.9062500000000001        0.407408        0.274598        0        
C3        C        0.875        0.42592500000000005        0.274598        0        
C4        C        0.9062500000000001        0.37037        0.274598        0        
C1        C        0.875        0.46296300000000007        0.274598        0        
C2        C        0.9062500000000001        0.518519        0.274598        0        
C3        C        0.875        0.537037        0.274598        0        
C4        C        0.9062500000000001        0.481481        0.274598        0        
C1        C        0.875        0.574075        0.274598        0        
C2        C        0.9062500000000001        0.62963        0.274598        0        
C3        C        0.875        0.648148        0.274598        0        
C4        C        0.9062500000000001        0.592592        0.274598        0        
C1        C        0.9375        0.018519        0.274598        0        
C2        C        0.9687500000000001        0.074075        0.274598        0        
C3        C        0.9375        0.092592        0.274598        0        
C4        C        0.9687500000000001        0.037037        0.274598        0        
C1        C        0.9375        0.12963        0.274598        0        
C2        C        0.9687500000000001        0.185185        0.274598        0        
C3        C        0.9375        0.203703        0.274598        0        
C4        C        0.9687500000000001        0.148148        0.274598        0        
C1        C        0.9375        0.24074099999999998        0.274598        0        
C2        C        0.9687500000000001        0.296297        0.274598        0        
C3        C        0.9375        0.314815        0.274598        0        
C4        C        0.9687500000000001        0.259259        0.274598        0        
C1        C        0.9375        0.351852        0.274598        0        
C2        C        0.9687500000000001        0.407408        0.274598        0        
C3        C        0.9375        0.42592500000000005        0.274598        0        
C4        C        0.9687500000000001        0.37037        0.274598        0        
C1        C        0.9375        0.46296300000000007        0.274598        0        
C2        C        0.9687500000000001        0.518519        0.274598        0        
C3        C        0.9375        0.537037        0.274598        0        
C4        C        0.9687500000000001        0.481481        0.274598        0        
C1        C        0.9375        0.574075        0.274598        0        
C2        C        0.9687500000000001        0.62963        0.274598        0        
C3        C        0.9375        0.648148        0.274598        0        
C4        C        0.9687500000000001        0.592592        0.274598        0        
C1        C        0.0        0.685186        0.274598        0        
C1        C        0.0625        0.685186        0.274598        0        
C1        C        0.125        0.685186        0.274598        0        
C1        C        0.1875        0.685186        0.274598        0        
C1        C        0.25        0.685186        0.274598        0        
C1        C        0.3125        0.685186        0.274598        0        
C1        C        0.375        0.685186        0.274598        0        
C1        C        0.4375        0.685186        0.274598        0        
C1        C        0.5        0.685186        0.274598        0        
C1        C        0.5625        0.685186        0.274598        0        
C1        C        0.625        0.685186        0.274598        0        
C1        C        0.6875        0.685186        0.274598        0        
C1        C        0.75        0.685186        0.274598        0        
C1        C        0.8125        0.685186        0.274598        0        
C1        C        0.875        0.685186        0.274598        0        
C1        C        0.9375        0.685186        0.274598        0        
C2        C        0.03125        0.740741        0.274598        0        
C2        C        0.09375        0.740741        0.274598        0        
C2        C        0.15625        0.740741        0.274598        0        
C2        C        0.21875        0.740741        0.274598        0        
C2        C        0.28125        0.740741        0.274598        0        
C2        C        0.34375        0.740741        0.274598        0        
C2        C        0.40625        0.740741        0.274598        0        
C2        C        0.46875        0.740741        0.274598        0        
C2        C        0.53125        0.740741        0.274598        0        
C2        C        0.59375        0.740741        0.274598        0        
C2        C        0.65625        0.740741        0.274598        0        
C2        C        0.71875        0.740741        0.274598        0        
C2        C        0.78125        0.740741        0.274598        0        
C2        C        0.84375        0.740741        0.274598        0        
C2        C        0.9062500000000001        0.740741        0.274598        0        
C2        C        0.9687500000000001        0.740741        0.274598        0        
C3        C        0.0        0.759259        0.274598        0        
C3        C        0.0625        0.759259        0.274598        0        
C3        C        0.125        0.759259        0.274598        0        
C3        C        0.1875        0.759259        0.274598        0        
C3        C        0.25        0.759259        0.274598        0        
C3        C        0.3125        0.759259        0.274598        0        
C3        C        0.375        0.759259        0.274598        0        
C3        C        0.4375        0.759259        0.274598        0        
C3        C        0.5        0.759259        0.274598        0        
C3        C        0.5625        0.759259        0.274598        0        
C3        C        0.625        0.759259        0.274598        0        
C3        C        0.6875        0.759259        0.274598        0        
C3        C        0.75        0.759259        0.274598        0        
C3        C        0.8125        0.759259        0.274598        0        
C3        C        0.875        0.759259        0.274598        0        
C3        C        0.9375        0.759259        0.274598        0        
C4        C        0.03125        0.703703        0.274598        0        
C4        C        0.09375        0.703703        0.274598        0        
C4        C        0.15625        0.703703        0.274598        0        
C4        C        0.21875        0.703703        0.274598        0        
C4        C        0.28125        0.703703        0.274598        0        
C4        C        0.34375        0.703703        0.274598        0        
C4        C        0.40625        0.703703        0.274598        0        
C4        C        0.46875        0.703703        0.274598        0        
C4        C        0.53125        0.703703        0.274598        0        
C4        C        0.59375        0.703703        0.274598        0        
C4        C        0.65625        0.703703        0.274598        0        
C4        C        0.71875        0.703703        0.274598        0        
C4        C        0.78125        0.703703        0.274598        0        
C4        C        0.84375        0.703703        0.274598        0        
C4        C        0.9062500000000001        0.703703        0.274598        0        
C4        C        0.9687500000000001        0.703703        0.274598        0        
C1        C        0.0        0.796297        0.274598        0        
C1        C        0.0625        0.796297        0.274598        0        
C1        C        0.125        0.796297        0.274598        0        
C1        C        0.1875        0.796297        0.274598        0        
C1        C        0.25        0.796297        0.274598        0        
C1        C        0.3125        0.796297        0.274598        0        
C1        C        0.375        0.796297        0.274598        0        
C1        C        0.4375        0.796297        0.274598        0        
C1        C        0.5        0.796297        0.274598        0        
C1        C        0.5625        0.796297        0.274598        0        
C1        C        0.625        0.796297        0.274598        0        
C1        C        0.6875        0.796297        0.274598        0        
C1        C        0.75        0.796297        0.274598        0        
C1        C        0.8125        0.796297        0.274598        0        
C1        C        0.875        0.796297        0.274598        0        
C1        C        0.9375        0.796297        0.274598        0        
C2        C        0.03125        0.851852        0.274598        0        
C2        C        0.09375        0.851852        0.274598        0        
C2        C        0.15625        0.851852        0.274598        0        
C2        C        0.21875        0.851852        0.274598        0        
C2        C        0.28125        0.851852        0.274598        0        
C2        C        0.34375        0.851852        0.274598        0        
C2        C        0.40625        0.851852        0.274598        0        
C2        C        0.46875        0.851852        0.274598        0        
C2        C        0.53125        0.851852        0.274598        0        
C2        C        0.59375        0.851852        0.274598        0        
C2        C        0.65625        0.851852        0.274598        0        
C2        C        0.71875        0.851852        0.274598        0        
C2        C        0.78125        0.851852        0.274598        0        
C2        C        0.84375        0.851852        0.274598        0        
C2        C        0.9062500000000001        0.851852        0.274598        0        
C2        C        0.9687500000000001        0.851852        0.274598        0        
C3        C        0.0        0.87037        0.274598        0        
C3        C        0.0625        0.87037        0.274598        0        
C3        C        0.125        0.87037        0.274598        0        
C3        C        0.1875        0.87037        0.274598        0        
C3        C        0.25        0.87037        0.274598        0        
C3        C        0.3125        0.87037        0.274598        0        
C3        C        0.375        0.87037        0.274598        0        
C3        C        0.4375        0.87037        0.274598        0        
C3        C        0.5        0.87037        0.274598        0        
C3        C        0.5625        0.87037        0.274598        0        
C3        C        0.625        0.87037        0.274598        0        
C3        C        0.6875        0.87037        0.274598        0        
C3        C        0.75        0.87037        0.274598        0        
C3        C        0.8125        0.87037        0.274598        0        
C3        C        0.875        0.87037        0.274598        0        
C3        C        0.9375        0.87037        0.274598        0        
C4        C        0.03125        0.814814        0.274598        0        
C4        C        0.09375        0.814814        0.274598        0        
C4        C        0.15625        0.814814        0.274598        0        
C4        C        0.21875        0.814814        0.274598        0        
C4        C        0.28125        0.814814        0.274598        0        
C4        C        0.34375        0.814814        0.274598        0        
C4        C        0.40625        0.814814        0.274598        0        
C4        C        0.46875        0.814814        0.274598        0        
C4        C        0.53125        0.814814        0.274598        0        
C4        C        0.59375        0.814814        0.274598        0        
C4        C        0.65625        0.814814        0.274598        0        
C4        C        0.71875        0.814814        0.274598        0        
C4        C        0.78125        0.814814        0.274598        0        
C4        C        0.84375        0.814814        0.274598        0        
C4        C        0.9062500000000001        0.814814        0.274598        0        
C4        C        0.9687500000000001        0.814814        0.274598        0        
C1        C        0.0        0.907408        0.274598        0        
C1        C        0.0625        0.907408        0.274598        0        
C1        C        0.125        0.907408        0.274598        0        
C1        C        0.1875        0.907408        0.274598        0        
C1        C        0.25        0.907408        0.274598        0        
C1        C        0.3125        0.907408        0.274598        0        
C1        C        0.375        0.907408        0.274598        0        
C1        C        0.4375        0.907408        0.274598        0        
C1        C        0.5        0.907408        0.274598        0        
C1        C        0.5625        0.907408        0.274598        0        
C1        C        0.625        0.907408        0.274598        0        
C1        C        0.6875        0.907408        0.274598        0        
C1        C        0.75        0.907408        0.274598        0        
C1        C        0.8125        0.907408        0.274598        0        
C1        C        0.875        0.907408        0.274598        0        
C1        C        0.9375        0.907408        0.274598        0        
C2        C        0.03125        0.962963        0.274598        0        
C2        C        0.09375        0.962963        0.274598        0        
C2        C        0.15625        0.962963        0.274598        0        
C2        C        0.21875        0.962963        0.274598        0        
C2        C        0.28125        0.962963        0.274598        0        
C2        C        0.34375        0.962963        0.274598        0        
C2        C        0.40625        0.962963        0.274598        0        
C2        C        0.46875        0.962963        0.274598        0        
C2        C        0.53125        0.962963        0.274598        0        
C2        C        0.59375        0.962963        0.274598        0        
C2        C        0.65625        0.962963        0.274598        0        
C2        C        0.71875        0.962963        0.274598        0        
C2        C        0.78125        0.962963        0.274598        0        
C2        C        0.84375        0.962963        0.274598        0        
C2        C        0.9062500000000001        0.962963        0.274598        0        
C2        C        0.9687500000000001        0.962963        0.274598        0        
C3        C        0.0        0.9814809999999999        0.274598        0        
C3        C        0.0625        0.9814809999999999        0.274598        0        
C3        C        0.125        0.9814809999999999        0.274598        0        
C3        C        0.1875        0.9814809999999999        0.274598        0        
C3        C        0.25        0.9814809999999999        0.274598        0        
C3        C        0.3125        0.9814809999999999        0.274598        0        
C3        C        0.375        0.9814809999999999        0.274598        0        
C3        C        0.4375        0.9814809999999999        0.274598        0        
C3        C        0.5        0.9814809999999999        0.274598        0        
C3        C        0.5625        0.9814809999999999        0.274598        0        
C3        C        0.625        0.9814809999999999        0.274598        0        
C3        C        0.6875        0.9814809999999999        0.274598        0        
C3        C        0.75        0.9814809999999999        0.274598        0        
C3        C        0.8125        0.9814809999999999        0.274598        0        
C3        C        0.875        0.9814809999999999        0.274598        0        
C3        C        0.9375        0.9814809999999999        0.274598        0        
C4        C        0.03125        0.925925        0.274598        0        
C4        C        0.09375        0.925925        0.274598        0        
C4        C        0.15625        0.925925        0.274598        0        
C4        C        0.21875        0.925925        0.274598        0        
C4        C        0.28125        0.925925        0.274598        0        
C4        C        0.34375        0.925925        0.274598        0        
C4        C        0.40625        0.925925        0.274598        0        
C4        C        0.46875        0.925925        0.274598        0        
C4        C        0.53125        0.925925        0.274598        0        
C4        C        0.59375        0.925925        0.274598        0        
C4        C        0.65625        0.925925        0.274598        0        
C4        C        0.71875        0.925925        0.274598        0        
C4        C        0.78125        0.925925        0.274598        0        
C4        C        0.84375        0.925925        0.274598        0        
C4        C        0.9062500000000001        0.925925        0.274598        0        
C4        C        0.9687500000000001        0.925925        0.274598        0        
C_FG        C        0.0        0.018519        0.334526        0.2        
C2        C        0.03125        0.074075        0.334526        0        
C3        C        0.0        0.092592        0.334526        0        
C4        C        0.03125        0.037037        0.334526        0        
C_FG        C        0.0        0.12963        0.334526        0.2        
C2        C        0.03125        0.185185        0.334526        0        
C3        C        0.0        0.203703        0.334526        0        
C4        C        0.03125        0.148148        0.334526        0        
C_FG        C        0.0        0.24074099999999998        0.334526        0.2        
C2        C        0.03125        0.296297        0.334526        0        
C3        C        0.0        0.314815        0.334526        0        
C4        C        0.03125        0.259259        0.334526        0        
C_FG        C        0.0        0.351852        0.334526        0.2        
C2        C        0.03125        0.407408        0.334526        0        
C3        C        0.0        0.42592500000000005        0.334526        0        
C4        C        0.03125        0.37037        0.334526        0        
C_FG        C        0.0        0.46296300000000007        0.334526        0.2        
C2        C        0.03125        0.518519        0.334526        0        
C3        C        0.0        0.537037        0.334526        0        
C4        C        0.03125        0.481481        0.334526        0        
C_FG        C        0.0        0.574075        0.334526        0.2        
C2        C        0.03125        0.62963        0.334526        0        
C3        C        0.0        0.648148        0.334526        0        
C4        C        0.03125        0.592592        0.334526        0        
C1        C        0.0625        0.018519        0.334526        0        
C2        C        0.09375        0.074075        0.334526        0        
C3        C        0.0625        0.092592        0.334526        0        
C4        C        0.09375        0.037037        0.334526        0        
C1        C        0.0625        0.12963        0.334526        0        
C2        C        0.09375        0.185185        0.334526        0        
C3        C        0.0625        0.203703        0.334526        0        
C4        C        0.09375        0.148148        0.334526        0        
C1        C        0.0625        0.24074099999999998        0.334526        0        
C2        C        0.09375        0.296297        0.334526        0        
C3        C        0.0625        0.314815        0.334526        0        
C4        C        0.09375        0.259259        0.334526        0        
C1        C        0.0625        0.351852        0.334526        0        
C2        C        0.09375        0.407408        0.334526        0        
C3        C        0.0625        0.42592500000000005        0.334526        0        
C4        C        0.09375        0.37037        0.334526        0        
C1        C        0.0625        0.46296300000000007        0.334526        0        
C2        C        0.09375        0.518519        0.334526        0        
C3        C        0.0625        0.537037        0.334526        0        
C4        C        0.09375        0.481481        0.334526        0        
C1        C        0.0625        0.574075        0.334526        0        
C2        C        0.09375        0.62963        0.334526        0        
C3        C        0.0625        0.648148        0.334526        0        
C4        C        0.09375        0.592592        0.334526        0        
C_FG        C        0.125        0.018519        0.334526        0.2        
C2        C        0.15625        0.074075        0.334526        0        
C3        C        0.125        0.092592        0.334526        0        
C4        C        0.15625        0.037037        0.334526        0        
C_FG        C        0.125        0.12963        0.334526        0.2        
C2        C        0.15625        0.185185        0.334526        0        
C3        C        0.125        0.203703        0.334526        0        
C4        C        0.15625        0.148148        0.334526        0        
C_FG        C        0.125        0.24074099999999998        0.334526        0.2        
C2        C        0.15625        0.296297        0.334526        0        
C3        C        0.125        0.314815        0.334526        0        
C4        C        0.15625        0.259259        0.334526        0        
C_FG        C        0.125        0.351852        0.334526        0.2        
C2        C        0.15625        0.407408        0.334526        0        
C3        C        0.125        0.42592500000000005        0.334526        0        
C4        C        0.15625        0.37037        0.334526        0        
C_FG        C        0.125        0.46296300000000007        0.334526        0.2        
C2        C        0.15625        0.518519        0.334526        0        
C3        C        0.125        0.537037        0.334526        0        
C4        C        0.15625        0.481481        0.334526        0        
C_FG        C        0.125        0.574075        0.334526        0.2        
C2        C        0.15625        0.62963        0.334526        0        
C3        C        0.125        0.648148        0.334526        0        
C4        C        0.15625        0.592592        0.334526        0        
C1        C        0.1875        0.018519        0.334526        0        
C2        C        0.21875        0.074075        0.334526        0        
C3        C        0.1875        0.092592        0.334526        0        
C4        C        0.21875        0.037037        0.334526        0        
C1        C        0.1875        0.12963        0.334526        0        
C2        C        0.21875        0.185185        0.334526        0        
C3        C        0.1875        0.203703        0.334526        0        
C4        C        0.21875        0.148148        0.334526        0        
C1        C        0.1875        0.24074099999999998        0.334526        0        
C2        C        0.21875        0.296297        0.334526        0        
C3        C        0.1875        0.314815        0.334526        0        
C4        C        0.21875        0.259259        0.334526        0        
C1        C        0.1875        0.351852        0.334526        0        
C2        C        0.21875        0.407408        0.334526        0        
C3        C        0.1875        0.42592500000000005        0.334526        0        
C4        C        0.21875        0.37037        0.334526        0        
C1        C        0.1875        0.46296300000000007        0.334526        0        
C2        C        0.21875        0.518519        0.334526        0        
C3        C        0.1875        0.537037        0.334526        0        
C4        C        0.21875        0.481481        0.334526        0        
C1        C        0.1875        0.574075        0.334526        0        
C2        C        0.21875        0.62963        0.334526        0        
C3        C        0.1875        0.648148        0.334526        0        
C4        C        0.21875        0.592592        0.334526        0        
C_FG        C        0.25        0.018519        0.334526        0.2        
C2        C        0.28125        0.074075        0.334526        0        
C3        C        0.25        0.092592        0.334526        0        
C4        C        0.28125        0.037037        0.334526        0        
C_FG        C        0.25        0.12963        0.334526        0.2        
C2        C        0.28125        0.185185        0.334526        0        
C3        C        0.25        0.203703        0.334526        0        
C4        C        0.28125        0.148148        0.334526        0        
C_FG        C        0.25        0.24074099999999998        0.334526        0.2        
C2        C        0.28125        0.296297        0.334526        0        
C3        C        0.25        0.314815        0.334526        0        
C4        C        0.28125        0.259259        0.334526        0        
C_FG        C        0.25        0.351852        0.334526        0.2        
C2        C        0.28125        0.407408        0.334526        0        
C3        C        0.25        0.42592500000000005        0.334526        0        
C4        C        0.28125        0.37037        0.334526        0        
C_FG        C        0.25        0.46296300000000007        0.334526        0.2        
C2        C        0.28125        0.518519        0.334526        0        
C3        C        0.25        0.537037        0.334526        0        
C4        C        0.28125        0.481481        0.334526        0        
C_FG        C        0.25        0.574075        0.334526        0.2        
C2        C        0.28125        0.62963        0.334526        0        
C3        C        0.25        0.648148        0.334526        0        
C4        C        0.28125        0.592592        0.334526        0        
C1        C        0.3125        0.018519        0.334526        0        
C2        C        0.34375        0.074075        0.334526        0        
C3        C        0.3125        0.092592        0.334526        0        
C4        C        0.34375        0.037037        0.334526        0        
C1        C        0.3125        0.12963        0.334526        0        
C2        C        0.34375        0.185185        0.334526        0        
C3        C        0.3125        0.203703        0.334526        0        
C4        C        0.34375        0.148148        0.334526        0        
C1        C        0.3125        0.24074099999999998        0.334526        0        
C2        C        0.34375        0.296297        0.334526        0        
C3        C        0.3125        0.314815        0.334526        0        
C4        C        0.34375        0.259259        0.334526        0        
C1        C        0.3125        0.351852        0.334526        0        
C2        C        0.34375        0.407408        0.334526        0        
C3        C        0.3125        0.42592500000000005        0.334526        0        
C4        C        0.34375        0.37037        0.334526        0        
C1        C        0.3125        0.46296300000000007        0.334526        0        
C2        C        0.34375        0.518519        0.334526        0        
C3        C        0.3125        0.537037        0.334526        0        
C4        C        0.34375        0.481481        0.334526        0        
C1        C        0.3125        0.574075        0.334526        0        
C2        C        0.34375        0.62963        0.334526        0        
C3        C        0.3125        0.648148        0.334526        0        
C4        C        0.34375        0.592592        0.334526        0        
C_FG        C        0.375        0.018519        0.334526        0.2        
C2        C        0.40625        0.074075        0.334526        0        
C3        C        0.375        0.092592        0.334526        0        
C4        C        0.40625        0.037037        0.334526        0        
C_FG        C        0.375        0.12963        0.334526        0.2        
C2        C        0.40625        0.185185        0.334526        0        
C3        C        0.375        0.203703        0.334526        0        
C4        C        0.40625        0.148148        0.334526        0        
C_FG        C        0.375        0.24074099999999998        0.334526        0.2        
C2        C        0.40625        0.296297        0.334526        0        
C3        C        0.375        0.314815        0.334526        0        
C4        C        0.40625        0.259259        0.334526        0        
C_FG        C        0.375        0.351852        0.334526        0.2        
C2        C        0.40625        0.407408        0.334526        0        
C3        C        0.375        0.42592500000000005        0.334526        0        
C4        C        0.40625        0.37037        0.334526        0        
C_FG        C        0.375        0.46296300000000007        0.334526        0.2        
C2        C        0.40625        0.518519        0.334526        0        
C3        C        0.375        0.537037        0.334526        0        
C4        C        0.40625        0.481481        0.334526        0        
C_FG        C        0.375        0.574075        0.334526        0.2        
C2        C        0.40625        0.62963        0.334526        0        
C3        C        0.375        0.648148        0.334526        0        
C4        C        0.40625        0.592592        0.334526        0        
C1        C        0.4375        0.018519        0.334526        0        
C2        C        0.46875        0.074075        0.334526        0        
C3        C        0.4375        0.092592        0.334526        0        
C4        C        0.46875        0.037037        0.334526        0        
C1        C        0.4375        0.12963        0.334526        0        
C2        C        0.46875        0.185185        0.334526        0        
C3        C        0.4375        0.203703        0.334526        0        
C4        C        0.46875        0.148148        0.334526        0        
C1        C        0.4375        0.24074099999999998        0.334526        0        
C2        C        0.46875        0.296297        0.334526        0        
C3        C        0.4375        0.314815        0.334526        0        
C4        C        0.46875        0.259259        0.334526        0        
C1        C        0.4375        0.351852        0.334526        0        
C2        C        0.46875        0.407408        0.334526        0        
C3        C        0.4375        0.42592500000000005        0.334526        0        
C4        C        0.46875        0.37037        0.334526        0        
C1        C        0.4375        0.46296300000000007        0.334526        0        
C2        C        0.46875        0.518519        0.334526        0        
C3        C        0.4375        0.537037        0.334526        0        
C4        C        0.46875        0.481481        0.334526        0        
C1        C        0.4375        0.574075        0.334526        0        
C2        C        0.46875        0.62963        0.334526        0        
C3        C        0.4375        0.648148        0.334526        0        
C4        C        0.46875        0.592592        0.334526        0        
C_FG        C        0.5        0.018519        0.334526        0.2        
C2        C        0.53125        0.074075        0.334526        0        
C3        C        0.5        0.092592        0.334526        0        
C4        C        0.53125        0.037037        0.334526        0        
C_FG        C        0.5        0.12963        0.334526        0.2        
C2        C        0.53125        0.185185        0.334526        0        
C3        C        0.5        0.203703        0.334526        0        
C4        C        0.53125        0.148148        0.334526        0        
C_FG        C        0.5        0.24074099999999998        0.334526        0.2        
C2        C        0.53125        0.296297        0.334526        0        
C3        C        0.5        0.314815        0.334526        0        
C4        C        0.53125        0.259259        0.334526        0        
C_FG        C        0.5        0.351852        0.334526        0.2        
C2        C        0.53125        0.407408        0.334526        0        
C3        C        0.5        0.42592500000000005        0.334526        0        
C4        C        0.53125        0.37037        0.334526        0        
C_FG        C        0.5        0.46296300000000007        0.334526        0.2        
C2        C        0.53125        0.518519        0.334526        0        
C3        C        0.5        0.537037        0.334526        0        
C4        C        0.53125        0.481481        0.334526        0        
C_FG        C        0.5        0.574075        0.334526        0.2        
C2        C        0.53125        0.62963        0.334526        0        
C3        C        0.5        0.648148        0.334526        0        
C4        C        0.53125        0.592592        0.334526        0        
C1        C        0.5625        0.018519        0.334526        0        
C2        C        0.59375        0.074075        0.334526        0        
C3        C        0.5625        0.092592        0.334526        0        
C4        C        0.59375        0.037037        0.334526        0        
C1        C        0.5625        0.12963        0.334526        0        
C2        C        0.59375        0.185185        0.334526        0        
C3        C        0.5625        0.203703        0.334526        0        
C4        C        0.59375        0.148148        0.334526        0        
C1        C        0.5625        0.24074099999999998        0.334526        0        
C2        C        0.59375        0.296297        0.334526        0        
C3        C        0.5625        0.314815        0.334526        0        
C4        C        0.59375        0.259259        0.334526        0        
C1        C        0.5625        0.351852        0.334526        0        
C2        C        0.59375        0.407408        0.334526        0        
C3        C        0.5625        0.42592500000000005        0.334526        0        
C4        C        0.59375        0.37037        0.334526        0        
C1        C        0.5625        0.46296300000000007        0.334526        0        
C2        C        0.59375        0.518519        0.334526        0        
C3        C        0.5625        0.537037        0.334526        0        
C4        C        0.59375        0.481481        0.334526        0        
C1        C        0.5625        0.574075        0.334526        0        
C2        C        0.59375        0.62963        0.334526        0        
C3        C        0.5625        0.648148        0.334526        0        
C4        C        0.59375        0.592592        0.334526        0        
C_FG        C        0.625        0.018519        0.334526        0.2        
C2        C        0.65625        0.074075        0.334526        0        
C3        C        0.625        0.092592        0.334526        0        
C4        C        0.65625        0.037037        0.334526        0        
C_FG        C        0.625        0.12963        0.334526        0.2        
C2        C        0.65625        0.185185        0.334526        0        
C3        C        0.625        0.203703        0.334526        0        
C4        C        0.65625        0.148148        0.334526        0        
C_FG        C        0.625        0.24074099999999998        0.334526        0.2        
C2        C        0.65625        0.296297        0.334526        0        
C3        C        0.625        0.314815        0.334526        0        
C4        C        0.65625        0.259259        0.334526        0        
C_FG        C        0.625        0.351852        0.334526        0.2        
C2        C        0.65625        0.407408        0.334526        0        
C3        C        0.625        0.42592500000000005        0.334526        0        
C4        C        0.65625        0.37037        0.334526        0        
C_FG        C        0.625        0.46296300000000007        0.334526        0.2        
C2        C        0.65625        0.518519        0.334526        0        
C3        C        0.625        0.537037        0.334526        0        
C4        C        0.65625        0.481481        0.334526        0        
C_FG        C        0.625        0.574075        0.334526        0.2        
C2        C        0.65625        0.62963        0.334526        0        
C3        C        0.625        0.648148        0.334526        0        
C4        C        0.65625        0.592592        0.334526        0        
C1        C        0.6875        0.018519        0.334526        0        
C2        C        0.71875        0.074075        0.334526        0        
C3        C        0.6875        0.092592        0.334526        0        
C4        C        0.71875        0.037037        0.334526        0        
C1        C        0.6875        0.12963        0.334526        0        
C2        C        0.71875        0.185185        0.334526        0        
C3        C        0.6875        0.203703        0.334526        0        
C4        C        0.71875        0.148148        0.334526        0        
C1        C        0.6875        0.24074099999999998        0.334526        0        
C2        C        0.71875        0.296297        0.334526        0        
C3        C        0.6875        0.314815        0.334526        0        
C4        C        0.71875        0.259259        0.334526        0        
C1        C        0.6875        0.351852        0.334526        0        
C2        C        0.71875        0.407408        0.334526        0        
C3        C        0.6875        0.42592500000000005        0.334526        0        
C4        C        0.71875        0.37037        0.334526        0        
C1        C        0.6875        0.46296300000000007        0.334526        0        
C2        C        0.71875        0.518519        0.334526        0        
C3        C        0.6875        0.537037        0.334526        0        
C4        C        0.71875        0.481481        0.334526        0        
C1        C        0.6875        0.574075        0.334526        0        
C2        C        0.71875        0.62963        0.334526        0        
C3        C        0.6875        0.648148        0.334526        0        
C4        C        0.71875        0.592592        0.334526        0        
C_FG        C        0.75        0.018519        0.334526        0.2        
C2        C        0.78125        0.074075        0.334526        0        
C3        C        0.75        0.092592        0.334526        0        
C4        C        0.78125        0.037037        0.334526        0        
C_FG        C        0.75        0.12963        0.334526        0.2        
C2        C        0.78125        0.185185        0.334526        0        
C3        C        0.75        0.203703        0.334526        0        
C4        C        0.78125        0.148148        0.334526        0        
C_FG        C        0.75        0.24074099999999998        0.334526        0.2        
C2        C        0.78125        0.296297        0.334526        0        
C3        C        0.75        0.314815        0.334526        0        
C4        C        0.78125        0.259259        0.334526        0        
C_FG        C        0.75        0.351852        0.334526        0.2        
C2        C        0.78125        0.407408        0.334526        0        
C3        C        0.75        0.42592500000000005        0.334526        0        
C4        C        0.78125        0.37037        0.334526        0        
C_FG        C        0.75        0.46296300000000007        0.334526        0.2        
C2        C        0.78125        0.518519        0.334526        0        
C3        C        0.75        0.537037        0.334526        0        
C4        C        0.78125        0.481481        0.334526        0        
C_FG        C        0.75        0.574075        0.334526        0.2        
C2        C        0.78125        0.62963        0.334526        0        
C3        C        0.75        0.648148        0.334526        0        
C4        C        0.78125        0.592592        0.334526        0        
C1        C        0.8125        0.018519        0.334526        0        
C2        C        0.84375        0.074075        0.334526        0        
C3        C        0.8125        0.092592        0.334526        0        
C4        C        0.84375        0.037037        0.334526        0        
C1        C        0.8125        0.12963        0.334526        0        
C2        C        0.84375        0.185185        0.334526        0        
C3        C        0.8125        0.203703        0.334526        0        
C4        C        0.84375        0.148148        0.334526        0        
C1        C        0.8125        0.24074099999999998        0.334526        0        
C2        C        0.84375        0.296297        0.334526        0        
C3        C        0.8125        0.314815        0.334526        0        
C4        C        0.84375        0.259259        0.334526        0        
C1        C        0.8125        0.351852        0.334526        0        
C2        C        0.84375        0.407408        0.334526        0        
C3        C        0.8125        0.42592500000000005        0.334526        0        
C4        C        0.84375        0.37037        0.334526        0        
C1        C        0.8125        0.46296300000000007        0.334526        0        
C2        C        0.84375        0.518519        0.334526        0        
C3        C        0.8125        0.537037        0.334526        0        
C4        C        0.84375        0.481481        0.334526        0        
C1        C        0.8125        0.574075        0.334526        0        
C2        C        0.84375        0.62963        0.334526        0        
C3        C        0.8125        0.648148        0.334526        0        
C4        C        0.84375        0.592592        0.334526        0        
C_FG        C        0.875        0.018519        0.334526        0.2        
C2        C        0.9062500000000001        0.074075        0.334526        0        
C3        C        0.875        0.092592        0.334526        0        
C4        C        0.9062500000000001        0.037037        0.334526        0        
C_FG        C        0.875        0.12963        0.334526        0.2        
C2        C        0.9062500000000001        0.185185        0.334526        0        
C3        C        0.875        0.203703        0.334526        0        
C4        C        0.9062500000000001        0.148148        0.334526        0        
C_FG        C        0.875        0.24074099999999998        0.334526        0.2        
C2        C        0.9062500000000001        0.296297        0.334526        0        
C3        C        0.875        0.314815        0.334526        0        
C4        C        0.9062500000000001        0.259259        0.334526        0        
C_FG        C        0.875        0.351852        0.334526        0.2        
C2        C        0.9062500000000001        0.407408        0.334526        0        
C3        C        0.875        0.42592500000000005        0.334526        0        
C4        C        0.9062500000000001        0.37037        0.334526        0        
C_FG        C        0.875        0.46296300000000007        0.334526        0.2        
C2        C        0.9062500000000001        0.518519        0.334526        0        
C3        C        0.875        0.537037        0.334526        0        
C4        C        0.9062500000000001        0.481481        0.334526        0        
C_FG        C        0.875        0.574075        0.334526        0.2        
C2        C        0.9062500000000001        0.62963        0.334526        0        
C3        C        0.875        0.648148        0.334526        0        
C4        C        0.9062500000000001        0.592592        0.334526        0        
C1        C        0.9375        0.018519        0.334526        0        
C2        C        0.9687500000000001        0.074075        0.334526        0        
C3        C        0.9375        0.092592        0.334526        0        
C4        C        0.9687500000000001        0.037037        0.334526        0        
C1        C        0.9375        0.12963        0.334526        0        
C2        C        0.9687500000000001        0.185185        0.334526        0        
C3        C        0.9375        0.203703        0.334526        0        
C4        C        0.9687500000000001        0.148148        0.334526        0        
C1        C        0.9375        0.24074099999999998        0.334526        0        
C2        C        0.9687500000000001        0.296297        0.334526        0        
C3        C        0.9375        0.314815        0.334526        0        
C4        C        0.9687500000000001        0.259259        0.334526        0        
C1        C        0.9375        0.351852        0.334526        0        
C2        C        0.9687500000000001        0.407408        0.334526        0        
C3        C        0.9375        0.42592500000000005        0.334526        0        
C4        C        0.9687500000000001        0.37037        0.334526        0        
C1        C        0.9375        0.46296300000000007        0.334526        0        
C2        C        0.9687500000000001        0.518519        0.334526        0        
C3        C        0.9375        0.537037        0.334526        0        
C4        C        0.9687500000000001        0.481481        0.334526        0        
C1        C        0.9375        0.574075        0.334526        0        
C2        C        0.9687500000000001        0.62963        0.334526        0        
C3        C        0.9375        0.648148        0.334526        0        
C4        C        0.9687500000000001        0.592592        0.334526        0        
C_FG        C        0.0        0.685186        0.334526        0.2        
C1        C        0.0625        0.685186        0.334526        0        
C_FG        C        0.125        0.685186        0.334526        0.2        
C1        C        0.1875        0.685186        0.334526        0        
C_FG        C        0.25        0.685186        0.334526        0.2        
C1        C        0.3125        0.685186        0.334526        0        
C_FG        C        0.375        0.685186        0.334526        0.2        
C1        C        0.4375        0.685186        0.334526        0        
C_FG        C        0.5        0.685186        0.334526        0.2        
C1        C        0.5625        0.685186        0.334526        0        
C_FG        C        0.625        0.685186        0.334526        0.2        
C1        C        0.6875        0.685186        0.334526        0        
C_FG        C        0.75        0.685186        0.334526        0.2        
C1        C        0.8125        0.685186        0.334526        0        
C_FG        C        0.875        0.685186        0.334526        0.2        
C1        C        0.9375        0.685186        0.334526        0        
C2        C        0.03125        0.740741        0.334526        0        
C2        C        0.09375        0.740741        0.334526        0        
C2        C        0.15625        0.740741        0.334526        0        
C2        C        0.21875        0.740741        0.334526        0        
C2        C        0.28125        0.740741        0.334526        0        
C2        C        0.34375        0.740741        0.334526        0        
C2        C        0.40625        0.740741        0.334526        0        
C2        C        0.46875        0.740741        0.334526        0        
C2        C        0.53125        0.740741        0.334526        0        
C2        C        0.59375        0.740741        0.334526        0        
C2        C        0.65625        0.740741        0.334526        0        
C2        C        0.71875        0.740741        0.334526        0        
C2        C        0.78125        0.740741        0.334526        0        
C2        C        0.84375        0.740741        0.334526        0        
C2        C        0.9062500000000001        0.740741        0.334526        0        
C2        C        0.9687500000000001        0.740741        0.334526        0        
C3        C        0.0        0.759259        0.334526        0        
C3        C        0.0625        0.759259        0.334526        0        
C3        C        0.125        0.759259        0.334526        0        
C3        C        0.1875        0.759259        0.334526        0        
C3        C        0.25        0.759259        0.334526        0        
C3        C        0.3125        0.759259        0.334526        0        
C3        C        0.375        0.759259        0.334526        0        
C3        C        0.4375        0.759259        0.334526        0        
C3        C        0.5        0.759259        0.334526        0        
C3        C        0.5625        0.759259        0.334526        0        
C3        C        0.625        0.759259        0.334526        0        
C3        C        0.6875        0.759259        0.334526        0        
C3        C        0.75        0.759259        0.334526        0        
C3        C        0.8125        0.759259        0.334526        0        
C3        C        0.875        0.759259        0.334526        0        
C3        C        0.9375        0.759259        0.334526        0        
C4        C        0.03125        0.703703        0.334526        0        
C4        C        0.09375        0.703703        0.334526        0        
C4        C        0.15625        0.703703        0.334526        0        
C4        C        0.21875        0.703703        0.334526        0        
C4        C        0.28125        0.703703        0.334526        0        
C4        C        0.34375        0.703703        0.334526        0        
C4        C        0.40625        0.703703        0.334526        0        
C4        C        0.46875        0.703703        0.334526        0        
C4        C        0.53125        0.703703        0.334526        0        
C4        C        0.59375        0.703703        0.334526        0        
C4        C        0.65625        0.703703        0.334526        0        
C4        C        0.71875        0.703703        0.334526        0        
C4        C        0.78125        0.703703        0.334526        0        
C4        C        0.84375        0.703703        0.334526        0        
C4        C        0.9062500000000001        0.703703        0.334526        0        
C4        C        0.9687500000000001        0.703703        0.334526        0        
C_FG        C        0.0        0.796297        0.334526        0.2        
C1        C        0.0625        0.796297        0.334526        0        
C_FG        C        0.125        0.796297        0.334526        0.2        
C1        C        0.1875        0.796297        0.334526        0        
C_FG        C        0.25        0.796297        0.334526        0.2        
C1        C        0.3125        0.796297        0.334526        0        
C_FG        C        0.375        0.796297        0.334526        0.2        
C1        C        0.4375        0.796297        0.334526        0        
C_FG        C        0.5        0.796297        0.334526        0.2        
C1        C        0.5625        0.796297        0.334526        0        
C_FG        C        0.625        0.796297        0.334526        0.2        
C1        C        0.6875        0.796297        0.334526        0        
C_FG        C        0.75        0.796297        0.334526        0.2        
C1        C        0.8125        0.796297        0.334526        0        
C_FG        C        0.875        0.796297        0.334526        0.2        
C1        C        0.9375        0.796297        0.334526        0        
C2        C        0.03125        0.851852        0.334526        0        
C2        C        0.09375        0.851852        0.334526        0        
C2        C        0.15625        0.851852        0.334526        0        
C2        C        0.21875        0.851852        0.334526        0        
C2        C        0.28125        0.851852        0.334526        0        
C2        C        0.34375        0.851852        0.334526        0        
C2        C        0.40625        0.851852        0.334526        0        
C2        C        0.46875        0.851852        0.334526        0        
C2        C        0.53125        0.851852        0.334526        0        
C2        C        0.59375        0.851852        0.334526        0        
C2        C        0.65625        0.851852        0.334526        0        
C2        C        0.71875        0.851852        0.334526        0        
C2        C        0.78125        0.851852        0.334526        0        
C2        C        0.84375        0.851852        0.334526        0        
C2        C        0.9062500000000001        0.851852        0.334526        0        
C2        C        0.9687500000000001        0.851852        0.334526        0        
C3        C        0.0        0.87037        0.334526        0        
C3        C        0.0625        0.87037        0.334526        0        
C3        C        0.125        0.87037        0.334526        0        
C3        C        0.1875        0.87037        0.334526        0        
C3        C        0.25        0.87037        0.334526        0        
C3        C        0.3125        0.87037        0.334526        0        
C3        C        0.375        0.87037        0.334526        0        
C3        C        0.4375        0.87037        0.334526        0        
C3        C        0.5        0.87037        0.334526        0        
C3        C        0.5625        0.87037        0.334526        0        
C3        C        0.625        0.87037        0.334526        0        
C3        C        0.6875        0.87037        0.334526        0        
C3        C        0.75        0.87037        0.334526        0        
C3        C        0.8125        0.87037        0.334526        0        
C3        C        0.875        0.87037        0.334526        0        
C3        C        0.9375        0.87037        0.334526        0        
C4        C        0.03125        0.814814        0.334526        0        
C4        C        0.09375        0.814814        0.334526        0        
C4        C        0.15625        0.814814        0.334526        0        
C4        C        0.21875        0.814814        0.334526        0        
C4        C        0.28125        0.814814        0.334526        0        
C4        C        0.34375        0.814814        0.334526        0        
C4        C        0.40625        0.814814        0.334526        0        
C4        C        0.46875        0.814814        0.334526        0        
C4        C        0.53125        0.814814        0.334526        0        
C4        C        0.59375        0.814814        0.334526        0        
C4        C        0.65625        0.814814        0.334526        0        
C4        C        0.71875        0.814814        0.334526        0        
C4        C        0.78125        0.814814        0.334526        0        
C4        C        0.84375        0.814814        0.334526        0        
C4        C        0.9062500000000001        0.814814        0.334526        0        
C4        C        0.9687500000000001        0.814814        0.334526        0        
C_FG        C        0.0        0.907408        0.334526        0.2        
C1        C        0.0625        0.907408        0.334526        0        
C_FG        C        0.125        0.907408        0.334526        0.2        
C1        C        0.1875        0.907408        0.334526        0        
C_FG        C        0.25        0.907408        0.334526        0.2        
C1        C        0.3125        0.907408        0.334526        0        
C_FG        C        0.375        0.907408        0.334526        0.2        
C1        C        0.4375        0.907408        0.334526        0        
C_FG        C        0.5        0.907408        0.334526        0.2        
C1        C        0.5625        0.907408        0.334526        0        
C_FG        C        0.625        0.907408        0.334526        0.2        
C1        C        0.6875        0.907408        0.334526        0        
C_FG        C        0.75        0.907408        0.334526        0.2        
C1        C        0.8125        0.907408        0.334526        0        
C_FG        C        0.875        0.907408        0.334526        0.2        
C1        C        0.9375        0.907408        0.334526        0        
C2        C        0.03125        0.962963        0.334526        0        
C2        C        0.09375        0.962963        0.334526        0        
C2        C        0.15625        0.962963        0.334526        0        
C2        C        0.21875        0.962963        0.334526        0        
C2        C        0.28125        0.962963        0.334526        0        
C2        C        0.34375        0.962963        0.334526        0        
C2        C        0.40625        0.962963        0.334526        0        
C2        C        0.46875        0.962963        0.334526        0        
C2        C        0.53125        0.962963        0.334526        0        
C2        C        0.59375        0.962963        0.334526        0        
C2        C        0.65625        0.962963        0.334526        0        
C2        C        0.71875        0.962963        0.334526        0        
C2        C        0.78125        0.962963        0.334526        0        
C2        C        0.84375        0.962963        0.334526        0        
C2        C        0.9062500000000001        0.962963        0.334526        0        
C2        C        0.9687500000000001        0.962963        0.334526        0        
C3        C        0.0        0.9814809999999999        0.334526        0        
C3        C        0.0625        0.9814809999999999        0.334526        0        
C3        C        0.125        0.9814809999999999        0.334526        0        
C3        C        0.1875        0.9814809999999999        0.334526        0        
C3        C        0.25        0.9814809999999999        0.334526        0        
C3        C        0.3125        0.9814809999999999        0.334526        0        
C3        C        0.375        0.9814809999999999        0.334526        0        
C3        C        0.4375        0.9814809999999999        0.334526        0        
C3        C        0.5        0.9814809999999999        0.334526        0        
C3        C        0.5625        0.9814809999999999        0.334526        0        
C3        C        0.625        0.9814809999999999        0.334526        0        
C3        C        0.6875        0.9814809999999999        0.334526        0        
C3        C        0.75        0.9814809999999999        0.334526        0        
C3        C        0.8125        0.9814809999999999        0.334526        0        
C3        C        0.875        0.9814809999999999        0.334526        0        
C3        C        0.9375        0.9814809999999999        0.334526        0        
C4        C        0.03125        0.925925        0.334526        0        
C4        C        0.09375        0.925925        0.334526        0        
C4        C        0.15625        0.925925        0.334526        0        
C4        C        0.21875        0.925925        0.334526        0        
C4        C        0.28125        0.925925        0.334526        0        
C4        C        0.34375        0.925925        0.334526        0        
C4        C        0.40625        0.925925        0.334526        0        
C4        C        0.46875        0.925925        0.334526        0        
C4        C        0.53125        0.925925        0.334526        0        
C4        C        0.59375        0.925925        0.334526        0        
C4        C        0.65625        0.925925        0.334526        0        
C4        C        0.71875        0.925925        0.334526        0        
C4        C        0.78125        0.925925        0.334526        0        
C4        C        0.84375        0.925925        0.334526        0        
C4        C        0.9062500000000001        0.925925        0.334526        0        
C4        C        0.9687500000000001        0.925925        0.334526        0        
C_FG        C        0.0        0.018519        0.665474        0.2        
C2        C        0.03125        0.074075        0.665474        0        
C3        C        0.0        0.092592        0.665474        0        
C4        C        0.03125        0.037037        0.665474        0        
C_FG        C        0.0        0.12963        0.665474        0.2        
C2        C        0.03125        0.185185        0.665474        0        
C3        C        0.0        0.203703        0.665474        0        
C4        C        0.03125        0.148148        0.665474        0        
C_FG        C        0.0        0.24074099999999998        0.665474        0.2        
C2        C        0.03125        0.296297        0.665474        0        
C3        C        0.0        0.314815        0.665474        0        
C4        C        0.03125        0.259259        0.665474        0        
C_FG        C        0.0        0.351852        0.665474        0.2        
C2        C        0.03125        0.407408        0.665474        0        
C3        C        0.0        0.42592500000000005        0.665474        0        
C4        C        0.03125        0.37037        0.665474        0        
C_FG        C        0.0        0.46296300000000007        0.665474        0.2        
C2        C        0.03125        0.518519        0.665474        0        
C3        C        0.0        0.537037        0.665474        0        
C4        C        0.03125        0.481481        0.665474        0        
C_FG        C        0.0        0.574075        0.665474        0.2        
C2        C        0.03125        0.62963        0.665474        0        
C3        C        0.0        0.648148        0.665474        0        
C4        C        0.03125        0.592592        0.665474        0        
C1        C        0.0625        0.018519        0.665474        0        
C2        C        0.09375        0.074075        0.665474        0        
C3        C        0.0625        0.092592        0.665474        0        
C4        C        0.09375        0.037037        0.665474        0        
C1        C        0.0625        0.12963        0.665474        0        
C2        C        0.09375        0.185185        0.665474        0        
C3        C        0.0625        0.203703        0.665474        0        
C4        C        0.09375        0.148148        0.665474        0        
C1        C        0.0625        0.24074099999999998        0.665474        0        
C2        C        0.09375        0.296297        0.665474        0        
C3        C        0.0625        0.314815        0.665474        0        
C4        C        0.09375        0.259259        0.665474        0        
C1        C        0.0625        0.351852        0.665474        0        
C2        C        0.09375        0.407408        0.665474        0        
C3        C        0.0625        0.42592500000000005        0.665474        0        
C4        C        0.09375        0.37037        0.665474        0        
C1        C        0.0625        0.46296300000000007        0.665474        0        
C2        C        0.09375        0.518519        0.665474        0        
C3        C        0.0625        0.537037        0.665474        0        
C4        C        0.09375        0.481481        0.665474        0        
C1        C        0.0625        0.574075        0.665474        0        
C2        C        0.09375        0.62963        0.665474        0        
C3        C        0.0625        0.648148        0.665474        0        
C4        C        0.09375        0.592592        0.665474        0        
C_FG        C        0.125        0.018519        0.665474        0.2        
C2        C        0.15625        0.074075        0.665474        0        
C3        C        0.125        0.092592        0.665474        0        
C4        C        0.15625        0.037037        0.665474        0        
C_FG        C        0.125        0.12963        0.665474        0.2        
C2        C        0.15625        0.185185        0.665474        0        
C3        C        0.125        0.203703        0.665474        0        
C4        C        0.15625        0.148148        0.665474        0        
C_FG        C        0.125        0.24074099999999998        0.665474        0.2        
C2        C        0.15625        0.296297        0.665474        0        
C3        C        0.125        0.314815        0.665474        0        
C4        C        0.15625        0.259259        0.665474        0        
C_FG        C        0.125        0.351852        0.665474        0.2        
C2        C        0.15625        0.407408        0.665474        0        
C3        C        0.125        0.42592500000000005        0.665474        0        
C4        C        0.15625        0.37037        0.665474        0        
C_FG        C        0.125        0.46296300000000007        0.665474        0.2        
C2        C        0.15625        0.518519        0.665474        0        
C3        C        0.125        0.537037        0.665474        0        
C4        C        0.15625        0.481481        0.665474        0        
C_FG        C        0.125        0.574075        0.665474        0.2        
C2        C        0.15625        0.62963        0.665474        0        
C3        C        0.125        0.648148        0.665474        0        
C4        C        0.15625        0.592592        0.665474        0        
C1        C        0.1875        0.018519        0.665474        0        
C2        C        0.21875        0.074075        0.665474        0        
C3        C        0.1875        0.092592        0.665474        0        
C4        C        0.21875        0.037037        0.665474        0        
C1        C        0.1875        0.12963        0.665474        0        
C2        C        0.21875        0.185185        0.665474        0        
C3        C        0.1875        0.203703        0.665474        0        
C4        C        0.21875        0.148148        0.665474        0        
C1        C        0.1875        0.24074099999999998        0.665474        0        
C2        C        0.21875        0.296297        0.665474        0        
C3        C        0.1875        0.314815        0.665474        0        
C4        C        0.21875        0.259259        0.665474        0        
C1        C        0.1875        0.351852        0.665474        0        
C2        C        0.21875        0.407408        0.665474        0        
C3        C        0.1875        0.42592500000000005        0.665474        0        
C4        C        0.21875        0.37037        0.665474        0        
C1        C        0.1875        0.46296300000000007        0.665474        0        
C2        C        0.21875        0.518519        0.665474        0        
C3        C        0.1875        0.537037        0.665474        0        
C4        C        0.21875        0.481481        0.665474        0        
C1        C        0.1875        0.574075        0.665474        0        
C2        C        0.21875        0.62963        0.665474        0        
C3        C        0.1875        0.648148        0.665474        0        
C4        C        0.21875        0.592592        0.665474        0        
C_FG        C        0.25        0.018519        0.665474        0.2        
C2        C        0.28125        0.074075        0.665474        0        
C3        C        0.25        0.092592        0.665474        0        
C4        C        0.28125        0.037037        0.665474        0        
C_FG        C        0.25        0.12963        0.665474        0.2        
C2        C        0.28125        0.185185        0.665474        0        
C3        C        0.25        0.203703        0.665474        0        
C4        C        0.28125        0.148148        0.665474        0        
C_FG        C        0.25        0.24074099999999998        0.665474        0.2        
C2        C        0.28125        0.296297        0.665474        0        
C3        C        0.25        0.314815        0.665474        0        
C4        C        0.28125        0.259259        0.665474        0        
C_FG        C        0.25        0.351852        0.665474        0.2        
C2        C        0.28125        0.407408        0.665474        0        
C3        C        0.25        0.42592500000000005        0.665474        0        
C4        C        0.28125        0.37037        0.665474        0        
C_FG        C        0.25        0.46296300000000007        0.665474        0.2        
C2        C        0.28125        0.518519        0.665474        0        
C3        C        0.25        0.537037        0.665474        0        
C4        C        0.28125        0.481481        0.665474        0        
C_FG        C        0.25        0.574075        0.665474        0.2        
C2        C        0.28125        0.62963        0.665474        0        
C3        C        0.25        0.648148        0.665474        0        
C4        C        0.28125        0.592592        0.665474        0        
C1        C        0.3125        0.018519        0.665474        0        
C2        C        0.34375        0.074075        0.665474        0        
C3        C        0.3125        0.092592        0.665474        0        
C4        C        0.34375        0.037037        0.665474        0        
C1        C        0.3125        0.12963        0.665474        0        
C2        C        0.34375        0.185185        0.665474        0        
C3        C        0.3125        0.203703        0.665474        0        
C4        C        0.34375        0.148148        0.665474        0        
C1        C        0.3125        0.24074099999999998        0.665474        0        
C2        C        0.34375        0.296297        0.665474        0        
C3        C        0.3125        0.314815        0.665474        0        
C4        C        0.34375        0.259259        0.665474        0        
C1        C        0.3125        0.351852        0.665474        0        
C2        C        0.34375        0.407408        0.665474        0        
C3        C        0.3125        0.42592500000000005        0.665474        0        
C4        C        0.34375        0.37037        0.665474        0        
C1        C        0.3125        0.46296300000000007        0.665474        0        
C2        C        0.34375        0.518519        0.665474        0        
C3        C        0.3125        0.537037        0.665474        0        
C4        C        0.34375        0.481481        0.665474        0        
C1        C        0.3125        0.574075        0.665474        0        
C2        C        0.34375        0.62963        0.665474        0        
C3        C        0.3125        0.648148        0.665474        0        
C4        C        0.34375        0.592592        0.665474        0        
C_FG        C        0.375        0.018519        0.665474        0.2        
C2        C        0.40625        0.074075        0.665474        0        
C3        C        0.375        0.092592        0.665474        0        
C4        C        0.40625        0.037037        0.665474        0        
C_FG        C        0.375        0.12963        0.665474        0.2        
C2        C        0.40625        0.185185        0.665474        0        
C3        C        0.375        0.203703        0.665474        0        
C4        C        0.40625        0.148148        0.665474        0        
C_FG        C        0.375        0.24074099999999998        0.665474        0.2        
C2        C        0.40625        0.296297        0.665474        0        
C3        C        0.375        0.314815        0.665474        0        
C4        C        0.40625        0.259259        0.665474        0        
C_FG        C        0.375        0.351852        0.665474        0.2        
C2        C        0.40625        0.407408        0.665474        0        
C3        C        0.375        0.42592500000000005        0.665474        0        
C4        C        0.40625        0.37037        0.665474        0        
C_FG        C        0.375        0.46296300000000007        0.665474        0.2        
C2        C        0.40625        0.518519        0.665474        0        
C3        C        0.375        0.537037        0.665474        0        
C4        C        0.40625        0.481481        0.665474        0        
C_FG        C        0.375        0.574075        0.665474        0.2        
C2        C        0.40625        0.62963        0.665474        0        
C3        C        0.375        0.648148        0.665474        0        
C4        C        0.40625        0.592592        0.665474        0        
C1        C        0.4375        0.018519        0.665474        0        
C2        C        0.46875        0.074075        0.665474        0        
C3        C        0.4375        0.092592        0.665474        0        
C4        C        0.46875        0.037037        0.665474        0        
C1        C        0.4375        0.12963        0.665474        0        
C2        C        0.46875        0.185185        0.665474        0        
C3        C        0.4375        0.203703        0.665474        0        
C4        C        0.46875        0.148148        0.665474        0        
C1        C        0.4375        0.24074099999999998        0.665474        0        
C2        C        0.46875        0.296297        0.665474        0        
C3        C        0.4375        0.314815        0.665474        0        
C4        C        0.46875        0.259259        0.665474        0        
C1        C        0.4375        0.351852        0.665474        0        
C2        C        0.46875        0.407408        0.665474        0        
C3        C        0.4375        0.42592500000000005        0.665474        0        
C4        C        0.46875        0.37037        0.665474        0        
C1        C        0.4375        0.46296300000000007        0.665474        0        
C2        C        0.46875        0.518519        0.665474        0        
C3        C        0.4375        0.537037        0.665474        0        
C4        C        0.46875        0.481481        0.665474        0        
C1        C        0.4375        0.574075        0.665474        0        
C2        C        0.46875        0.62963        0.665474        0        
C3        C        0.4375        0.648148        0.665474        0        
C4        C        0.46875        0.592592        0.665474        0        
C_FG        C        0.5        0.018519        0.665474        0.2        
C2        C        0.53125        0.074075        0.665474        0        
C3        C        0.5        0.092592        0.665474        0        
C4        C        0.53125        0.037037        0.665474        0        
C_FG        C        0.5        0.12963        0.665474        0.2        
C2        C        0.53125        0.185185        0.665474        0        
C3        C        0.5        0.203703        0.665474        0        
C4        C        0.53125        0.148148        0.665474        0        
C_FG        C        0.5        0.24074099999999998        0.665474        0.2        
C2        C        0.53125        0.296297        0.665474        0        
C3        C        0.5        0.314815        0.665474        0        
C4        C        0.53125        0.259259        0.665474        0        
C_FG        C        0.5        0.351852        0.665474        0.2        
C2        C        0.53125        0.407408        0.665474        0        
C3        C        0.5        0.42592500000000005        0.665474        0        
C4        C        0.53125        0.37037        0.665474        0        
C_FG        C        0.5        0.46296300000000007        0.665474        0.2        
C2        C        0.53125        0.518519        0.665474        0        
C3        C        0.5        0.537037        0.665474        0        
C4        C        0.53125        0.481481        0.665474        0        
C_FG        C        0.5        0.574075        0.665474        0.2        
C2        C        0.53125        0.62963        0.665474        0        
C3        C        0.5        0.648148        0.665474        0        
C4        C        0.53125        0.592592        0.665474        0        
C1        C        0.5625        0.018519        0.665474        0        
C2        C        0.59375        0.074075        0.665474        0        
C3        C        0.5625        0.092592        0.665474        0        
C4        C        0.59375        0.037037        0.665474        0        
C1        C        0.5625        0.12963        0.665474        0        
C2        C        0.59375        0.185185        0.665474        0        
C3        C        0.5625        0.203703        0.665474        0        
C4        C        0.59375        0.148148        0.665474        0        
C1        C        0.5625        0.24074099999999998        0.665474        0        
C2        C        0.59375        0.296297        0.665474        0        
C3        C        0.5625        0.314815        0.665474        0        
C4        C        0.59375        0.259259        0.665474        0        
C1        C        0.5625        0.351852        0.665474        0        
C2        C        0.59375        0.407408        0.665474        0        
C3        C        0.5625        0.42592500000000005        0.665474        0        
C4        C        0.59375        0.37037        0.665474        0        
C1        C        0.5625        0.46296300000000007        0.665474        0        
C2        C        0.59375        0.518519        0.665474        0        
C3        C        0.5625        0.537037        0.665474        0        
C4        C        0.59375        0.481481        0.665474        0        
C1        C        0.5625        0.574075        0.665474        0        
C2        C        0.59375        0.62963        0.665474        0        
C3        C        0.5625        0.648148        0.665474        0        
C4        C        0.59375        0.592592        0.665474        0        
C_FG        C        0.625        0.018519        0.665474        0.2        
C2        C        0.65625        0.074075        0.665474        0        
C3        C        0.625        0.092592        0.665474        0        
C4        C        0.65625        0.037037        0.665474        0        
C_FG        C        0.625        0.12963        0.665474        0.2        
C2        C        0.65625        0.185185        0.665474        0        
C3        C        0.625        0.203703        0.665474        0        
C4        C        0.65625        0.148148        0.665474        0        
C_FG        C        0.625        0.24074099999999998        0.665474        0.2        
C2        C        0.65625        0.296297        0.665474        0        
C3        C        0.625        0.314815        0.665474        0        
C4        C        0.65625        0.259259        0.665474        0        
C_FG        C        0.625        0.351852        0.665474        0.2        
C2        C        0.65625        0.407408        0.665474        0        
C3        C        0.625        0.42592500000000005        0.665474        0        
C4        C        0.65625        0.37037        0.665474        0        
C_FG        C        0.625        0.46296300000000007        0.665474        0.2        
C2        C        0.65625        0.518519        0.665474        0        
C3        C        0.625        0.537037        0.665474        0        
C4        C        0.65625        0.481481        0.665474        0        
C_FG        C        0.625        0.574075        0.665474        0.2        
C2        C        0.65625        0.62963        0.665474        0        
C3        C        0.625        0.648148        0.665474        0        
C4        C        0.65625        0.592592        0.665474        0        
C1        C        0.6875        0.018519        0.665474        0        
C2        C        0.71875        0.074075        0.665474        0        
C3        C        0.6875        0.092592        0.665474        0        
C4        C        0.71875        0.037037        0.665474        0        
C1        C        0.6875        0.12963        0.665474        0        
C2        C        0.71875        0.185185        0.665474        0        
C3        C        0.6875        0.203703        0.665474        0        
C4        C        0.71875        0.148148        0.665474        0        
C1        C        0.6875        0.24074099999999998        0.665474        0        
C2        C        0.71875        0.296297        0.665474        0        
C3        C        0.6875        0.314815        0.665474        0        
C4        C        0.71875        0.259259        0.665474        0        
C1        C        0.6875        0.351852        0.665474        0        
C2        C        0.71875        0.407408        0.665474        0        
C3        C        0.6875        0.42592500000000005        0.665474        0        
C4        C        0.71875        0.37037        0.665474        0        
C1        C        0.6875        0.46296300000000007        0.665474        0        
C2        C        0.71875        0.518519        0.665474        0        
C3        C        0.6875        0.537037        0.665474        0        
C4        C        0.71875        0.481481        0.665474        0        
C1        C        0.6875        0.574075        0.665474        0        
C2        C        0.71875        0.62963        0.665474        0        
C3        C        0.6875        0.648148        0.665474        0        
C4        C        0.71875        0.592592        0.665474        0        
C_FG        C        0.75        0.018519        0.665474        0.2        
C2        C        0.78125        0.074075        0.665474        0        
C3        C        0.75        0.092592        0.665474        0        
C4        C        0.78125        0.037037        0.665474        0        
C_FG        C        0.75        0.12963        0.665474        0.2        
C2        C        0.78125        0.185185        0.665474        0        
C3        C        0.75        0.203703        0.665474        0        
C4        C        0.78125        0.148148        0.665474        0        
C_FG        C        0.75        0.24074099999999998        0.665474        0.2        
C2        C        0.78125        0.296297        0.665474        0        
C3        C        0.75        0.314815        0.665474        0        
C4        C        0.78125        0.259259        0.665474        0        
C_FG        C        0.75        0.351852        0.665474        0.2        
C2        C        0.78125        0.407408        0.665474        0        
C3        C        0.75        0.42592500000000005        0.665474        0        
C4        C        0.78125        0.37037        0.665474        0        
C_FG        C        0.75        0.46296300000000007        0.665474        0.2        
C2        C        0.78125        0.518519        0.665474        0        
C3        C        0.75        0.537037        0.665474        0        
C4        C        0.78125        0.481481        0.665474        0        
C_FG        C        0.75        0.574075        0.665474        0.2        
C2        C        0.78125        0.62963        0.665474        0        
C3        C        0.75        0.648148        0.665474        0        
C4        C        0.78125        0.592592        0.665474        0        
C1        C        0.8125        0.018519        0.665474        0        
C2        C        0.84375        0.074075        0.665474        0        
C3        C        0.8125        0.092592        0.665474        0        
C4        C        0.84375        0.037037        0.665474        0        
C1        C        0.8125        0.12963        0.665474        0        
C2        C        0.84375        0.185185        0.665474        0        
C3        C        0.8125        0.203703        0.665474        0        
C4        C        0.84375        0.148148        0.665474        0        
C1        C        0.8125        0.24074099999999998        0.665474        0        
C2        C        0.84375        0.296297        0.665474        0        
C3        C        0.8125        0.314815        0.665474        0        
C4        C        0.84375        0.259259        0.665474        0        
C1        C        0.8125        0.351852        0.665474        0        
C2        C        0.84375        0.407408        0.665474        0        
C3        C        0.8125        0.42592500000000005        0.665474        0        
C4        C        0.84375        0.37037        0.665474        0        
C1        C        0.8125        0.46296300000000007        0.665474        0        
C2        C        0.84375        0.518519        0.665474        0        
C3        C        0.8125        0.537037        0.665474        0        
C4        C        0.84375        0.481481        0.665474        0        
C1        C        0.8125        0.574075        0.665474        0        
C2        C        0.84375        0.62963        0.665474        0        
C3        C        0.8125        0.648148        0.665474        0        
C4        C        0.84375        0.592592        0.665474        0        
C_FG        C        0.875        0.018519        0.665474        0.2        
C2        C        0.9062500000000001        0.074075        0.665474        0        
C3        C        0.875        0.092592        0.665474        0        
C4        C        0.9062500000000001        0.037037        0.665474        0        
C_FG        C        0.875        0.12963        0.665474        0.2        
C2        C        0.9062500000000001        0.185185        0.665474        0        
C3        C        0.875        0.203703        0.665474        0        
C4        C        0.9062500000000001        0.148148        0.665474        0        
C_FG        C        0.875        0.24074099999999998        0.665474        0.2        
C2        C        0.9062500000000001        0.296297        0.665474        0        
C3        C        0.875        0.314815        0.665474        0        
C4        C        0.9062500000000001        0.259259        0.665474        0        
C_FG        C        0.875        0.351852        0.665474        0.2        
C2        C        0.9062500000000001        0.407408        0.665474        0        
C3        C        0.875        0.42592500000000005        0.665474        0        
C4        C        0.9062500000000001        0.37037        0.665474        0        
C_FG        C        0.875        0.46296300000000007        0.665474        0.2        
C2        C        0.9062500000000001        0.518519        0.665474        0        
C3        C        0.875        0.537037        0.665474        0        
C4        C        0.9062500000000001        0.481481        0.665474        0        
C_FG        C        0.875        0.574075        0.665474        0.2        
C2        C        0.9062500000000001        0.62963        0.665474        0        
C3        C        0.875        0.648148        0.665474        0        
C4        C        0.9062500000000001        0.592592        0.665474        0        
C1        C        0.9375        0.018519        0.665474        0        
C2        C        0.9687500000000001        0.074075        0.665474        0        
C3        C        0.9375        0.092592        0.665474        0        
C4        C        0.9687500000000001        0.037037        0.665474        0        
C1        C        0.9375        0.12963        0.665474        0        
C2        C        0.9687500000000001        0.185185        0.665474        0        
C3        C        0.9375        0.203703        0.665474        0        
C4        C        0.9687500000000001        0.148148        0.665474        0        
C1        C        0.9375        0.24074099999999998        0.665474        0        
C2        C        0.9687500000000001        0.296297        0.665474        0        
C3        C        0.9375        0.314815        0.665474        0        
C4        C        0.9687500000000001        0.259259        0.665474        0        
C1        C        0.9375        0.351852        0.665474        0        
C2        C        0.9687500000000001        0.407408        0.665474        0        
C3        C        0.9375        0.42592500000000005        0.665474        0        
C4        C        0.9687500000000001        0.37037        0.665474        0        
C1        C        0.9375        0.46296300000000007        0.665474        0        
C2        C        0.9687500000000001        0.518519        0.665474        0        
C3        C        0.9375        0.537037        0.665474        0        
C4        C        0.9687500000000001        0.481481        0.665474        0        
C1        C        0.9375        0.574075        0.665474        0        
C2        C        0.9687500000000001        0.62963        0.665474        0        
C3        C        0.9375        0.648148        0.665474        0        
C4        C        0.9687500000000001        0.592592        0.665474        0        
C_FG        C        0.0        0.685186        0.665474        0.2        
C1        C        0.0625        0.685186        0.665474        0        
C_FG        C        0.125        0.685186        0.665474        0.2        
C1        C        0.1875        0.685186        0.665474        0        
C_FG        C        0.25        0.685186        0.665474        0.2        
C1        C        0.3125        0.685186        0.665474        0        
C_FG        C        0.375        0.685186        0.665474        0.2        
C1        C        0.4375        0.685186        0.665474        0        
C_FG        C        0.5        0.685186        0.665474        0.2        
C1        C        0.5625        0.685186        0.665474        0        
C_FG        C        0.625        0.685186        0.665474        0.2        
C1        C        0.6875        0.685186        0.665474        0        
C_FG        C        0.75        0.685186        0.665474        0.2        
C1        C        0.8125        0.685186        0.665474        0        
C_FG        C        0.875        0.685186        0.665474        0.2        
C1        C        0.9375        0.685186        0.665474        0        
C2        C        0.03125        0.740741        0.665474        0        
C2        C        0.09375        0.740741        0.665474        0        
C2        C        0.15625        0.740741        0.665474        0        
C2        C        0.21875        0.740741        0.665474        0        
C2        C        0.28125        0.740741        0.665474        0        
C2        C        0.34375        0.740741        0.665474        0        
C2        C        0.40625        0.740741        0.665474        0        
C2        C        0.46875        0.740741        0.665474        0        
C2        C        0.53125        0.740741        0.665474        0        
C2        C        0.59375        0.740741        0.665474        0        
C2        C        0.65625        0.740741        0.665474        0        
C2        C        0.71875        0.740741        0.665474        0        
C2        C        0.78125        0.740741        0.665474        0        
C2        C        0.84375        0.740741        0.665474        0        
C2        C        0.9062500000000001        0.740741        0.665474        0        
C2        C        0.9687500000000001        0.740741        0.665474        0        
C3        C        0.0        0.759259        0.665474        0        
C3        C        0.0625        0.759259        0.665474        0        
C3        C        0.125        0.759259        0.665474        0        
C3        C        0.1875        0.759259        0.665474        0        
C3        C        0.25        0.759259        0.665474        0        
C3        C        0.3125        0.759259        0.665474        0        
C3        C        0.375        0.759259        0.665474        0        
C3        C        0.4375        0.759259        0.665474        0        
C3        C        0.5        0.759259        0.665474        0        
C3        C        0.5625        0.759259        0.665474        0        
C3        C        0.625        0.759259        0.665474        0        
C3        C        0.6875        0.759259        0.665474        0        
C3        C        0.75        0.759259        0.665474        0        
C3        C        0.8125        0.759259        0.665474        0        
C3        C        0.875        0.759259        0.665474        0        
C3        C        0.9375        0.759259        0.665474        0        
C4        C        0.03125        0.703703        0.665474        0        
C4        C        0.09375        0.703703        0.665474        0        
C4        C        0.15625        0.703703        0.665474        0        
C4        C        0.21875        0.703703        0.665474        0        
C4        C        0.28125        0.703703        0.665474        0        
C4        C        0.34375        0.703703        0.665474        0        
C4        C        0.40625        0.703703        0.665474        0        
C4        C        0.46875        0.703703        0.665474        0        
C4        C        0.53125        0.703703        0.665474        0        
C4        C        0.59375        0.703703        0.665474        0        
C4        C        0.65625        0.703703        0.665474        0        
C4        C        0.71875        0.703703        0.665474        0        
C4        C        0.78125        0.703703        0.665474        0        
C4        C        0.84375        0.703703        0.665474        0        
C4        C        0.9062500000000001        0.703703        0.665474        0        
C4        C        0.9687500000000001        0.703703        0.665474        0        
C_FG        C        0.0        0.796297        0.665474        0.2        
C1        C        0.0625        0.796297        0.665474        0        
C_FG        C        0.125        0.796297        0.665474        0.2        
C1        C        0.1875        0.796297        0.665474        0        
C_FG        C        0.25        0.796297        0.665474        0.2        
C1        C        0.3125        0.796297        0.665474        0        
C_FG        C        0.375        0.796297        0.665474        0.2        
C1        C        0.4375        0.796297        0.665474        0        
C_FG        C        0.5        0.796297        0.665474        0.2        
C1        C        0.5625        0.796297        0.665474        0        
C_FG        C        0.625        0.796297        0.665474        0.2        
C1        C        0.6875        0.796297        0.665474        0        
C_FG        C        0.75        0.796297        0.665474        0.2        
C1        C        0.8125        0.796297        0.665474        0        
C_FG        C        0.875        0.796297        0.665474        0.2        
C1        C        0.9375        0.796297        0.665474        0        
C2        C        0.03125        0.851852        0.665474        0        
C2        C        0.09375        0.851852        0.665474        0        
C2        C        0.15625        0.851852        0.665474        0        
C2        C        0.21875        0.851852        0.665474        0        
C2        C        0.28125        0.851852        0.665474        0        
C2        C        0.34375        0.851852        0.665474        0        
C2        C        0.40625        0.851852        0.665474        0        
C2        C        0.46875        0.851852        0.665474        0        
C2        C        0.53125        0.851852        0.665474        0        
C2        C        0.59375        0.851852        0.665474        0        
C2        C        0.65625        0.851852        0.665474        0        
C2        C        0.71875        0.851852        0.665474        0        
C2        C        0.78125        0.851852        0.665474        0        
C2        C        0.84375        0.851852        0.665474        0        
C2        C        0.9062500000000001        0.851852        0.665474        0        
C2        C        0.9687500000000001        0.851852        0.665474        0        
C3        C        0.0        0.87037        0.665474        0        
C3        C        0.0625        0.87037        0.665474        0        
C3        C        0.125        0.87037        0.665474        0        
C3        C        0.1875        0.87037        0.665474        0        
C3        C        0.25        0.87037        0.665474        0        
C3        C        0.3125        0.87037        0.665474        0        
C3        C        0.375        0.87037        0.665474        0        
C3        C        0.4375        0.87037        0.665474        0        
C3        C        0.5        0.87037        0.665474        0        
C3        C        0.5625        0.87037        0.665474        0        
C3        C        0.625        0.87037        0.665474        0        
C3        C        0.6875        0.87037        0.665474        0        
C3        C        0.75        0.87037        0.665474        0        
C3        C        0.8125        0.87037        0.665474        0        
C3        C        0.875        0.87037        0.665474        0        
C3        C        0.9375        0.87037        0.665474        0        
C4        C        0.03125        0.814814        0.665474        0        
C4        C        0.09375        0.814814        0.665474        0        
C4        C        0.15625        0.814814        0.665474        0        
C4        C        0.21875        0.814814        0.665474        0        
C4        C        0.28125        0.814814        0.665474        0        
C4        C        0.34375        0.814814        0.665474        0        
C4        C        0.40625        0.814814        0.665474        0        
C4        C        0.46875        0.814814        0.665474        0        
C4        C        0.53125        0.814814        0.665474        0        
C4        C        0.59375        0.814814        0.665474        0        
C4        C        0.65625        0.814814        0.665474        0        
C4        C        0.71875        0.814814        0.665474        0        
C4        C        0.78125        0.814814        0.665474        0        
C4        C        0.84375        0.814814        0.665474        0        
C4        C        0.9062500000000001        0.814814        0.665474        0        
C4        C        0.9687500000000001        0.814814        0.665474        0        
C_FG        C        0.0        0.907408        0.665474        0.2        
C1        C        0.0625        0.907408        0.665474        0        
C_FG        C        0.125        0.907408        0.665474        0.2        
C1        C        0.1875        0.907408        0.665474        0        
C_FG        C        0.25        0.907408        0.665474        0.2        
C1        C        0.3125        0.907408        0.665474        0        
C_FG        C        0.375        0.907408        0.665474        0.2        
C1        C        0.4375        0.907408        0.665474        0        
C_FG        C        0.5        0.907408        0.665474        0.2        
C1        C        0.5625        0.907408        0.665474        0        
C_FG        C        0.625        0.907408        0.665474        0.2        
C1        C        0.6875        0.907408        0.665474        0        
C_FG        C        0.75        0.907408        0.665474        0.2        
C1        C        0.8125        0.907408        0.665474        0        
C_FG        C        0.875        0.907408        0.665474        0.2        
C1        C        0.9375        0.907408        0.665474        0        
C2        C        0.03125        0.962963        0.665474        0        
C2        C        0.09375        0.962963        0.665474        0        
C2        C        0.15625        0.962963        0.665474        0        
C2        C        0.21875        0.962963        0.665474        0        
C2        C        0.28125        0.962963        0.665474        0        
C2        C        0.34375        0.962963        0.665474        0        
C2        C        0.40625        0.962963        0.665474        0        
C2        C        0.46875        0.962963        0.665474        0        
C2        C        0.53125        0.962963        0.665474        0        
C2        C        0.59375        0.962963        0.665474        0        
C2        C        0.65625        0.962963        0.665474        0        
C2        C        0.71875        0.962963        0.665474        0        
C2        C        0.78125        0.962963        0.665474        0        
C2        C        0.84375        0.962963        0.665474        0        
C2        C        0.9062500000000001        0.962963        0.665474        0        
C2        C        0.9687500000000001        0.962963        0.665474        0        
C3        C        0.0        0.9814809999999999        0.665474        0        
C3        C        0.0625        0.9814809999999999        0.665474        0        
C3        C        0.125        0.9814809999999999        0.665474        0        
C3        C        0.1875        0.9814809999999999        0.665474        0        
C3        C        0.25        0.9814809999999999        0.665474        0        
C3        C        0.3125        0.9814809999999999        0.665474        0        
C3        C        0.375        0.9814809999999999        0.665474        0        
C3        C        0.4375        0.9814809999999999        0.665474        0        
C3        C        0.5        0.9814809999999999        0.665474        0        
C3        C        0.5625        0.9814809999999999        0.665474        0        
C3        C        0.625        0.9814809999999999        0.665474        0        
C3        C        0.6875        0.9814809999999999        0.665474        0        
C3        C        0.75        0.9814809999999999        0.665474        0        
C3        C        0.8125        0.9814809999999999        0.665474        0        
C3        C        0.875        0.9814809999999999        0.665474        0        
C3        C        0.9375        0.9814809999999999        0.665474        0        
C4        C        0.03125        0.925925        0.665474        0        
C4        C        0.09375        0.925925        0.665474        0        
C4        C        0.15625        0.925925        0.665474        0        
C4        C        0.21875        0.925925        0.665474        0        
C4        C        0.28125        0.925925        0.665474        0        
C4        C        0.34375        0.925925        0.665474        0        
C4        C        0.40625        0.925925        0.665474        0        
C4        C        0.46875        0.925925        0.665474        0        
C4        C        0.53125        0.925925        0.665474        0        
C4        C        0.59375        0.925925        0.665474        0        
C4        C        0.65625        0.925925        0.665474        0        
C4        C        0.71875        0.925925        0.665474        0        
C4        C        0.78125        0.925925        0.665474        0        
C4        C        0.84375        0.925925        0.665474        0        
C4        C        0.9062500000000001        0.925925        0.665474        0        
C4        C        0.9687500000000001        0.925925        0.665474        0        
C1        C        0.0        0.018519        0.725403        0        
C2        C        0.03125        0.074075        0.725403        0        
C3        C        0.0        0.092592        0.725403        0        
C4        C        0.03125        0.037037        0.725403        0        
C1        C        0.0        0.12963        0.725403        0        
C2        C        0.03125        0.185185        0.725403        0        
C3        C        0.0        0.203703        0.725403        0        
C4        C        0.03125        0.148148        0.725403        0        
C1        C        0.0        0.24074099999999998        0.725403        0        
C2        C        0.03125        0.296297        0.725403        0        
C3        C        0.0        0.314815        0.725403        0        
C4        C        0.03125        0.259259        0.725403        0        
C1        C        0.0        0.351852        0.725403        0        
C2        C        0.03125        0.407408        0.725403        0        
C3        C        0.0        0.42592500000000005        0.725403        0        
C4        C        0.03125        0.37037        0.725403        0        
C1        C        0.0        0.46296300000000007        0.725403        0        
C2        C        0.03125        0.518519        0.725403        0        
C3        C        0.0        0.537037        0.725403        0        
C4        C        0.03125        0.481481        0.725403        0        
C1        C        0.0        0.574075        0.725403        0        
C2        C        0.03125        0.62963        0.725403        0        
C3        C        0.0        0.648148        0.725403        0        
C4        C        0.03125        0.592592        0.725403        0        
C1        C        0.0625        0.018519        0.725403        0        
C2        C        0.09375        0.074075        0.725403        0        
C3        C        0.0625        0.092592        0.725403        0        
C4        C        0.09375        0.037037        0.725403        0        
C1        C        0.0625        0.12963        0.725403        0        
C2        C        0.09375        0.185185        0.725403        0        
C3        C        0.0625        0.203703        0.725403        0        
C4        C        0.09375        0.148148        0.725403        0        
C1        C        0.0625        0.24074099999999998        0.725403        0        
C2        C        0.09375        0.296297        0.725403        0        
C3        C        0.0625        0.314815        0.725403        0        
C4        C        0.09375        0.259259        0.725403        0        
C1        C        0.0625        0.351852        0.725403        0        
C2        C        0.09375        0.407408        0.725403        0        
C3        C        0.0625        0.42592500000000005        0.725403        0        
C4        C        0.09375        0.37037        0.725403        0        
C1        C        0.0625        0.46296300000000007        0.725403        0        
C2        C        0.09375        0.518519        0.725403        0        
C3        C        0.0625        0.537037        0.725403        0        
C4        C        0.09375        0.481481        0.725403        0        
C1        C        0.0625        0.574075        0.725403        0        
C2        C        0.09375        0.62963        0.725403        0        
C3        C        0.0625        0.648148        0.725403        0        
C4        C        0.09375        0.592592        0.725403        0        
C1        C        0.125        0.018519        0.725403        0        
C2        C        0.15625        0.074075        0.725403        0        
C3        C        0.125        0.092592        0.725403        0        
C4        C        0.15625        0.037037        0.725403        0        
C1        C        0.125        0.12963        0.725403        0        
C2        C        0.15625        0.185185        0.725403        0        
C3        C        0.125        0.203703        0.725403        0        
C4        C        0.15625        0.148148        0.725403        0        
C1        C        0.125        0.24074099999999998        0.725403        0        
C2        C        0.15625        0.296297        0.725403        0        
C3        C        0.125        0.314815        0.725403        0        
C4        C        0.15625        0.259259        0.725403        0        
C1        C        0.125        0.351852        0.725403        0        
C2        C        0.15625        0.407408        0.725403        0        
C3        C        0.125        0.42592500000000005        0.725403        0        
C4        C        0.15625        0.37037        0.725403        0        
C1        C        0.125        0.46296300000000007        0.725403        0        
C2        C        0.15625        0.518519        0.725403        0        
C3        C        0.125        0.537037        0.725403        0        
C4        C        0.15625        0.481481        0.725403        0        
C1        C        0.125        0.574075        0.725403        0        
C2        C        0.15625        0.62963        0.725403        0        
C3        C        0.125        0.648148        0.725403        0        
C4        C        0.15625        0.592592        0.725403        0        
C1        C        0.1875        0.018519        0.725403        0        
C2        C        0.21875        0.074075        0.725403        0        
C3        C        0.1875        0.092592        0.725403        0        
C4        C        0.21875        0.037037        0.725403        0        
C1        C        0.1875        0.12963        0.725403        0        
C2        C        0.21875        0.185185        0.725403        0        
C3        C        0.1875        0.203703        0.725403        0        
C4        C        0.21875        0.148148        0.725403        0        
C1        C        0.1875        0.24074099999999998        0.725403        0        
C2        C        0.21875        0.296297        0.725403        0        
C3        C        0.1875        0.314815        0.725403        0        
C4        C        0.21875        0.259259        0.725403        0        
C1        C        0.1875        0.351852        0.725403        0        
C2        C        0.21875        0.407408        0.725403        0        
C3        C        0.1875        0.42592500000000005        0.725403        0        
C4        C        0.21875        0.37037        0.725403        0        
C1        C        0.1875        0.46296300000000007        0.725403        0        
C2        C        0.21875        0.518519        0.725403        0        
C3        C        0.1875        0.537037        0.725403        0        
C4        C        0.21875        0.481481        0.725403        0        
C1        C        0.1875        0.574075        0.725403        0        
C2        C        0.21875        0.62963        0.725403        0        
C3        C        0.1875        0.648148        0.725403        0        
C4        C        0.21875        0.592592        0.725403        0        
C1        C        0.25        0.018519        0.725403        0        
C2        C        0.28125        0.074075        0.725403        0        
C3        C        0.25        0.092592        0.725403        0        
C4        C        0.28125        0.037037        0.725403        0        
C1        C        0.25        0.12963        0.725403        0        
C2        C        0.28125        0.185185        0.725403        0        
C3        C        0.25        0.203703        0.725403        0        
C4        C        0.28125        0.148148        0.725403        0        
C1        C        0.25        0.24074099999999998        0.725403        0        
C2        C        0.28125        0.296297        0.725403        0        
C3        C        0.25        0.314815        0.725403        0        
C4        C        0.28125        0.259259        0.725403        0        
C1        C        0.25        0.351852        0.725403        0        
C2        C        0.28125        0.407408        0.725403        0        
C3        C        0.25        0.42592500000000005        0.725403        0        
C4        C        0.28125        0.37037        0.725403        0        
C1        C        0.25        0.46296300000000007        0.725403        0        
C2        C        0.28125        0.518519        0.725403        0        
C3        C        0.25        0.537037        0.725403        0        
C4        C        0.28125        0.481481        0.725403        0        
C1        C        0.25        0.574075        0.725403        0        
C2        C        0.28125        0.62963        0.725403        0        
C3        C        0.25        0.648148        0.725403        0        
C4        C        0.28125        0.592592        0.725403        0        
C1        C        0.3125        0.018519        0.725403        0        
C2        C        0.34375        0.074075        0.725403        0        
C3        C        0.3125        0.092592        0.725403        0        
C4        C        0.34375        0.037037        0.725403        0        
C1        C        0.3125        0.12963        0.725403        0        
C2        C        0.34375        0.185185        0.725403        0        
C3        C        0.3125        0.203703        0.725403        0        
C4        C        0.34375        0.148148        0.725403        0        
C1        C        0.3125        0.24074099999999998        0.725403        0        
C2        C        0.34375        0.296297        0.725403        0        
C3        C        0.3125        0.314815        0.725403        0        
C4        C        0.34375        0.259259        0.725403        0        
C1        C        0.3125        0.351852        0.725403        0        
C2        C        0.34375        0.407408        0.725403        0        
C3        C        0.3125        0.42592500000000005        0.725403        0        
C4        C        0.34375        0.37037        0.725403        0        
C1        C        0.3125        0.46296300000000007        0.725403        0        
C2        C        0.34375        0.518519        0.725403        0        
C3        C        0.3125        0.537037        0.725403        0        
C4        C        0.34375        0.481481        0.725403        0        
C1        C        0.3125        0.574075        0.725403        0        
C2        C        0.34375        0.62963        0.725403        0        
C3        C        0.3125        0.648148        0.725403        0        
C4        C        0.34375        0.592592        0.725403        0        
C1        C        0.375        0.018519        0.725403        0        
C2        C        0.40625        0.074075        0.725403        0        
C3        C        0.375        0.092592        0.725403        0        
C4        C        0.40625        0.037037        0.725403        0        
C1        C        0.375        0.12963        0.725403        0        
C2        C        0.40625        0.185185        0.725403        0        
C3        C        0.375        0.203703        0.725403        0        
C4        C        0.40625        0.148148        0.725403        0        
C1        C        0.375        0.24074099999999998        0.725403        0        
C2        C        0.40625        0.296297        0.725403        0        
C3        C        0.375        0.314815        0.725403        0        
C4        C        0.40625        0.259259        0.725403        0        
C1        C        0.375        0.351852        0.725403        0        
C2        C        0.40625        0.407408        0.725403        0        
C3        C        0.375        0.42592500000000005        0.725403        0        
C4        C        0.40625        0.37037        0.725403        0        
C1        C        0.375        0.46296300000000007        0.725403        0        
C2        C        0.40625        0.518519        0.725403        0        
C3        C        0.375        0.537037        0.725403        0        
C4        C        0.40625        0.481481        0.725403        0        
C1        C        0.375        0.574075        0.725403        0        
C2        C        0.40625        0.62963        0.725403        0        
C3        C        0.375        0.648148        0.725403        0        
C4        C        0.40625        0.592592        0.725403        0        
C1        C        0.4375        0.018519        0.725403        0        
C2        C        0.46875        0.074075        0.725403        0        
C3        C        0.4375        0.092592        0.725403        0        
C4        C        0.46875        0.037037        0.725403        0        
C1        C        0.4375        0.12963        0.725403        0        
C2        C        0.46875        0.185185        0.725403        0        
C3        C        0.4375        0.203703        0.725403        0        
C4        C        0.46875        0.148148        0.725403        0        
C1        C        0.4375        0.24074099999999998        0.725403        0        
C2        C        0.46875        0.296297        0.725403        0        
C3        C        0.4375        0.314815        0.725403        0        
C4        C        0.46875        0.259259        0.725403        0        
C1        C        0.4375        0.351852        0.725403        0        
C2        C        0.46875        0.407408        0.725403        0        
C3        C        0.4375        0.42592500000000005        0.725403        0        
C4        C        0.46875        0.37037        0.725403        0        
C1        C        0.4375        0.46296300000000007        0.725403        0        
C2        C        0.46875        0.518519        0.725403        0        
C3        C        0.4375        0.537037        0.725403        0        
C4        C        0.46875        0.481481        0.725403        0        
C1        C        0.4375        0.574075        0.725403        0        
C2        C        0.46875        0.62963        0.725403        0        
C3        C        0.4375        0.648148        0.725403        0        
C4        C        0.46875        0.592592        0.725403        0        
C1        C        0.5        0.018519        0.725403        0        
C2        C        0.53125        0.074075        0.725403        0        
C3        C        0.5        0.092592        0.725403        0        
C4        C        0.53125        0.037037        0.725403        0        
C1        C        0.5        0.12963        0.725403        0        
C2        C        0.53125        0.185185        0.725403        0        
C3        C        0.5        0.203703        0.725403        0        
C4        C        0.53125        0.148148        0.725403        0        
C1        C        0.5        0.24074099999999998        0.725403        0        
C2        C        0.53125        0.296297        0.725403        0        
C3        C        0.5        0.314815        0.725403        0        
C4        C        0.53125        0.259259        0.725403        0        
C1        C        0.5        0.351852        0.725403        0        
C2        C        0.53125        0.407408        0.725403        0        
C3        C        0.5        0.42592500000000005        0.725403        0        
C4        C        0.53125        0.37037        0.725403        0        
C1        C        0.5        0.46296300000000007        0.725403        0        
C2        C        0.53125        0.518519        0.725403        0        
C3        C        0.5        0.537037        0.725403        0        
C4        C        0.53125        0.481481        0.725403        0        
C1        C        0.5        0.574075        0.725403        0        
C2        C        0.53125        0.62963        0.725403        0        
C3        C        0.5        0.648148        0.725403        0        
C4        C        0.53125        0.592592        0.725403        0        
C1        C        0.5625        0.018519        0.725403        0        
C2        C        0.59375        0.074075        0.725403        0        
C3        C        0.5625        0.092592        0.725403        0        
C4        C        0.59375        0.037037        0.725403        0        
C1        C        0.5625        0.12963        0.725403        0        
C2        C        0.59375        0.185185        0.725403        0        
C3        C        0.5625        0.203703        0.725403        0        
C4        C        0.59375        0.148148        0.725403        0        
C1        C        0.5625        0.24074099999999998        0.725403        0        
C2        C        0.59375        0.296297        0.725403        0        
C3        C        0.5625        0.314815        0.725403        0        
C4        C        0.59375        0.259259        0.725403        0        
C1        C        0.5625        0.351852        0.725403        0        
C2        C        0.59375        0.407408        0.725403        0        
C3        C        0.5625        0.42592500000000005        0.725403        0        
C4        C        0.59375        0.37037        0.725403        0        
C1        C        0.5625        0.46296300000000007        0.725403        0        
C2        C        0.59375        0.518519        0.725403        0        
C3        C        0.5625        0.537037        0.725403        0        
C4        C        0.59375        0.481481        0.725403        0        
C1        C        0.5625        0.574075        0.725403        0        
C2        C        0.59375        0.62963        0.725403        0        
C3        C        0.5625        0.648148        0.725403        0        
C4        C        0.59375        0.592592        0.725403        0        
C1        C        0.625        0.018519        0.725403        0        
C2        C        0.65625        0.074075        0.725403        0        
C3        C        0.625        0.092592        0.725403        0        
C4        C        0.65625        0.037037        0.725403        0        
C1        C        0.625        0.12963        0.725403        0        
C2        C        0.65625        0.185185        0.725403        0        
C3        C        0.625        0.203703        0.725403        0        
C4        C        0.65625        0.148148        0.725403        0        
C1        C        0.625        0.24074099999999998        0.725403        0        
C2        C        0.65625        0.296297        0.725403        0        
C3        C        0.625        0.314815        0.725403        0        
C4        C        0.65625        0.259259        0.725403        0        
C1        C        0.625        0.351852        0.725403        0        
C2        C        0.65625        0.407408        0.725403        0        
C3        C        0.625        0.42592500000000005        0.725403        0        
C4        C        0.65625        0.37037        0.725403        0        
C1        C        0.625        0.46296300000000007        0.725403        0        
C2        C        0.65625        0.518519        0.725403        0        
C3        C        0.625        0.537037        0.725403        0        
C4        C        0.65625        0.481481        0.725403        0        
C1        C        0.625        0.574075        0.725403        0        
C2        C        0.65625        0.62963        0.725403        0        
C3        C        0.625        0.648148        0.725403        0        
C4        C        0.65625        0.592592        0.725403        0        
C1        C        0.6875        0.018519        0.725403        0        
C2        C        0.71875        0.074075        0.725403        0        
C3        C        0.6875        0.092592        0.725403        0        
C4        C        0.71875        0.037037        0.725403        0        
C1        C        0.6875        0.12963        0.725403        0        
C2        C        0.71875        0.185185        0.725403        0        
C3        C        0.6875        0.203703        0.725403        0        
C4        C        0.71875        0.148148        0.725403        0        
C1        C        0.6875        0.24074099999999998        0.725403        0        
C2        C        0.71875        0.296297        0.725403        0        
C3        C        0.6875        0.314815        0.725403        0        
C4        C        0.71875        0.259259        0.725403        0        
C1        C        0.6875        0.351852        0.725403        0        
C2        C        0.71875        0.407408        0.725403        0        
C3        C        0.6875        0.42592500000000005        0.725403        0        
C4        C        0.71875        0.37037        0.725403        0        
C1        C        0.6875        0.46296300000000007        0.725403        0        
C2        C        0.71875        0.518519        0.725403        0        
C3        C        0.6875        0.537037        0.725403        0        
C4        C        0.71875        0.481481        0.725403        0        
C1        C        0.6875        0.574075        0.725403        0        
C2        C        0.71875        0.62963        0.725403        0        
C3        C        0.6875        0.648148        0.725403        0        
C4        C        0.71875        0.592592        0.725403        0        
C1        C        0.75        0.018519        0.725403        0        
C2        C        0.78125        0.074075        0.725403        0        
C3        C        0.75        0.092592        0.725403        0        
C4        C        0.78125        0.037037        0.725403        0        
C1        C        0.75        0.12963        0.725403        0        
C2        C        0.78125        0.185185        0.725403        0        
C3        C        0.75        0.203703        0.725403        0        
C4        C        0.78125        0.148148        0.725403        0        
C1        C        0.75        0.24074099999999998        0.725403        0        
C2        C        0.78125        0.296297        0.725403        0        
C3        C        0.75        0.314815        0.725403        0        
C4        C        0.78125        0.259259        0.725403        0        
C1        C        0.75        0.351852        0.725403        0        
C2        C        0.78125        0.407408        0.725403        0        
C3        C        0.75        0.42592500000000005        0.725403        0        
C4        C        0.78125        0.37037        0.725403        0        
C1        C        0.75        0.46296300000000007        0.725403        0        
C2        C        0.78125        0.518519        0.725403        0        
C3        C        0.75        0.537037        0.725403        0        
C4        C        0.78125        0.481481        0.725403        0        
C1        C        0.75        0.574075        0.725403        0        
C2        C        0.78125        0.62963        0.725403        0        
C3        C        0.75        0.648148        0.725403        0        
C4        C        0.78125        0.592592        0.725403        0        
C1        C        0.8125        0.018519        0.725403        0        
C2        C        0.84375        0.074075        0.725403        0        
C3        C        0.8125        0.092592        0.725403        0        
C4        C        0.84375        0.037037        0.725403        0        
C1        C        0.8125        0.12963        0.725403        0        
C2        C        0.84375        0.185185        0.725403        0        
C3        C        0.8125        0.203703        0.725403        0        
C4        C        0.84375        0.148148        0.725403        0        
C1        C        0.8125        0.24074099999999998        0.725403        0        
C2        C        0.84375        0.296297        0.725403        0        
C3        C        0.8125        0.314815        0.725403        0        
C4        C        0.84375        0.259259        0.725403        0        
C1        C        0.8125        0.351852        0.725403        0        
C2        C        0.84375        0.407408        0.725403        0        
C3        C        0.8125        0.42592500000000005        0.725403        0        
C4        C        0.84375        0.37037        0.725403        0        
C1        C        0.8125        0.46296300000000007        0.725403        0        
C2        C        0.84375        0.518519        0.725403        0        
C3        C        0.8125        0.537037        0.725403        0        
C4        C        0.84375        0.481481        0.725403        0        
C1        C        0.8125        0.574075        0.725403        0        
C2        C        0.84375        0.62963        0.725403        0        
C3        C        0.8125        0.648148        0.725403        0        
C4        C        0.84375        0.592592        0.725403        0        
C1        C        0.875        0.018519        0.725403        0        
C2        C        0.9062500000000001        0.074075        0.725403        0        
C3        C        0.875        0.092592        0.725403        0        
C4        C        0.9062500000000001        0.037037        0.725403        0        
C1        C        0.875        0.12963        0.725403        0        
C2        C        0.9062500000000001        0.185185        0.725403        0        
C3        C        0.875        0.203703        0.725403        0        
C4        C        0.9062500000000001        0.148148        0.725403        0        
C1        C        0.875        0.24074099999999998        0.725403        0        
C2        C        0.9062500000000001        0.296297        0.725403        0        
C3        C        0.875        0.314815        0.725403        0        
C4        C        0.9062500000000001        0.259259        0.725403        0        
C1        C        0.875        0.351852        0.725403        0        
C2        C        0.9062500000000001        0.407408        0.725403        0        
C3        C        0.875        0.42592500000000005        0.725403        0        
C4        C        0.9062500000000001        0.37037        0.725403        0        
C1        C        0.875        0.46296300000000007        0.725403        0        
C2        C        0.9062500000000001        0.518519        0.725403        0        
C3        C        0.875        0.537037        0.725403        0        
C4        C        0.9062500000000001        0.481481        0.725403        0        
C1        C        0.875        0.574075        0.725403        0        
C2        C        0.9062500000000001        0.62963        0.725403        0        
C3        C        0.875        0.648148        0.725403        0        
C4        C        0.9062500000000001        0.592592        0.725403        0        
C1        C        0.9375        0.018519        0.725403        0        
C2        C        0.9687500000000001        0.074075        0.725403        0        
C3        C        0.9375        0.092592        0.725403        0        
C4        C        0.9687500000000001        0.037037        0.725403        0        
C1        C        0.9375        0.12963        0.725403        0        
C2        C        0.9687500000000001        0.185185        0.725403        0        
C3        C        0.9375        0.203703        0.725403        0        
C4        C        0.9687500000000001        0.148148        0.725403        0        
C1        C        0.9375        0.24074099999999998        0.725403        0        
C2        C        0.9687500000000001        0.296297        0.725403        0        
C3        C        0.9375        0.314815        0.725403        0        
C4        C        0.9687500000000001        0.259259        0.725403        0        
C1        C        0.9375        0.351852        0.725403        0        
C2        C        0.9687500000000001        0.407408        0.725403        0        
C3        C        0.9375        0.42592500000000005        0.725403        0        
C4        C        0.9687500000000001        0.37037        0.725403        0        
C1        C        0.9375        0.46296300000000007        0.725403        0        
C2        C        0.9687500000000001        0.518519        0.725403        0        
C3        C        0.9375        0.537037        0.725403        0        
C4        C        0.9687500000000001        0.481481        0.725403        0        
C1        C        0.9375        0.574075        0.725403        0        
C2        C        0.9687500000000001        0.62963        0.725403        0        
C3        C        0.9375        0.648148        0.725403        0        
C4        C        0.9687500000000001        0.592592        0.725403        0        
C1        C        0.0        0.685186        0.725403        0        
C1        C        0.0625        0.685186        0.725403        0        
C1        C        0.125        0.685186        0.725403        0        
C1        C        0.1875        0.685186        0.725403        0        
C1        C        0.25        0.685186        0.725403        0        
C1        C        0.3125        0.685186        0.725403        0        
C1        C        0.375        0.685186        0.725403        0        
C1        C        0.4375        0.685186        0.725403        0        
C1        C        0.5        0.685186        0.725403        0        
C1        C        0.5625        0.685186        0.725403        0        
C1        C        0.625        0.685186        0.725403        0        
C1        C        0.6875        0.685186        0.725403        0        
C1        C        0.75        0.685186        0.725403        0        
C1        C        0.8125        0.685186        0.725403        0        
C1        C        0.875        0.685186        0.725403        0        
C1        C        0.9375        0.685186        0.725403        0        
C2        C        0.03125        0.740741        0.725403        0        
C2        C        0.09375        0.740741        0.725403        0        
C2        C        0.15625        0.740741        0.725403        0        
C2        C        0.21875        0.740741        0.725403        0        
C2        C        0.28125        0.740741        0.725403        0        
C2        C        0.34375        0.740741        0.725403        0        
C2        C        0.40625        0.740741        0.725403        0        
C2        C        0.46875        0.740741        0.725403        0        
C2        C        0.53125        0.740741        0.725403        0        
C2        C        0.59375        0.740741        0.725403        0        
C2        C        0.65625        0.740741        0.725403        0        
C2        C        0.71875        0.740741        0.725403        0        
C2        C        0.78125        0.740741        0.725403        0        
C2        C        0.84375        0.740741        0.725403        0        
C2        C        0.9062500000000001        0.740741        0.725403        0        
C2        C        0.9687500000000001        0.740741        0.725403        0        
C3        C        0.0        0.759259        0.725403        0        
C3        C        0.0625        0.759259        0.725403        0        
C3        C        0.125        0.759259        0.725403        0        
C3        C        0.1875        0.759259        0.725403        0        
C3        C        0.25        0.759259        0.725403        0        
C3        C        0.3125        0.759259        0.725403        0        
C3        C        0.375        0.759259        0.725403        0        
C3        C        0.4375        0.759259        0.725403        0        
C3        C        0.5        0.759259        0.725403        0        
C3        C        0.5625        0.759259        0.725403        0        
C3        C        0.625        0.759259        0.725403        0        
C3        C        0.6875        0.759259        0.725403        0        
C3        C        0.75        0.759259        0.725403        0        
C3        C        0.8125        0.759259        0.725403        0        
C3        C        0.875        0.759259        0.725403        0        
C3        C        0.9375        0.759259        0.725403        0        
C4        C        0.03125        0.703703        0.725403        0        
C4        C        0.09375        0.703703        0.725403        0        
C4        C        0.15625        0.703703        0.725403        0        
C4        C        0.21875        0.703703        0.725403        0        
C4        C        0.28125        0.703703        0.725403        0        
C4        C        0.34375        0.703703        0.725403        0        
C4        C        0.40625        0.703703        0.725403        0        
C4        C        0.46875        0.703703        0.725403        0        
C4        C        0.53125        0.703703        0.725403        0        
C4        C        0.59375        0.703703        0.725403        0        
C4        C        0.65625        0.703703        0.725403        0        
C4        C        0.71875        0.703703        0.725403        0        
C4        C        0.78125        0.703703        0.725403        0        
C4        C        0.84375        0.703703        0.725403        0        
C4        C        0.9062500000000001        0.703703        0.725403        0        
C4        C        0.9687500000000001        0.703703        0.725403        0        
C1        C        0.0        0.796297        0.725403        0        
C1        C        0.0625        0.796297        0.725403        0        
C1        C        0.125        0.796297        0.725403        0        
C1        C        0.1875        0.796297        0.725403        0        
C1        C        0.25        0.796297        0.725403        0        
C1        C        0.3125        0.796297        0.725403        0        
C1        C        0.375        0.796297        0.725403        0        
C1        C        0.4375        0.796297        0.725403        0        
C1        C        0.5        0.796297        0.725403        0        
C1        C        0.5625        0.796297        0.725403        0        
C1        C        0.625        0.796297        0.725403        0        
C1        C        0.6875        0.796297        0.725403        0        
C1        C        0.75        0.796297        0.725403        0        
C1        C        0.8125        0.796297        0.725403        0        
C1        C        0.875        0.796297        0.725403        0        
C1        C        0.9375        0.796297        0.725403        0        
C2        C        0.03125        0.851852        0.725403        0        
C2        C        0.09375        0.851852        0.725403        0        
C2        C        0.15625        0.851852        0.725403        0        
C2        C        0.21875        0.851852        0.725403        0        
C2        C        0.28125        0.851852        0.725403        0        
C2        C        0.34375        0.851852        0.725403        0        
C2        C        0.40625        0.851852        0.725403        0        
C2        C        0.46875        0.851852        0.725403        0        
C2        C        0.53125        0.851852        0.725403        0        
C2        C        0.59375        0.851852        0.725403        0        
C2        C        0.65625        0.851852        0.725403        0        
C2        C        0.71875        0.851852        0.725403        0        
C2        C        0.78125        0.851852        0.725403        0        
C2        C        0.84375        0.851852        0.725403        0        
C2        C        0.9062500000000001        0.851852        0.725403        0        
C2        C        0.9687500000000001        0.851852        0.725403        0        
C3        C        0.0        0.87037        0.725403        0        
C3        C        0.0625        0.87037        0.725403        0        
C3        C        0.125        0.87037        0.725403        0        
C3        C        0.1875        0.87037        0.725403        0        
C3        C        0.25        0.87037        0.725403        0        
C3        C        0.3125        0.87037        0.725403        0        
C3        C        0.375        0.87037        0.725403        0        
C3        C        0.4375        0.87037        0.725403        0        
C3        C        0.5        0.87037        0.725403        0        
C3        C        0.5625        0.87037        0.725403        0        
C3        C        0.625        0.87037        0.725403        0        
C3        C        0.6875        0.87037        0.725403        0        
C3        C        0.75        0.87037        0.725403        0        
C3        C        0.8125        0.87037        0.725403        0        
C3        C        0.875        0.87037        0.725403        0        
C3        C        0.9375        0.87037        0.725403        0        
C4        C        0.03125        0.814814        0.725403        0        
C4        C        0.09375        0.814814        0.725403        0        
C4        C        0.15625        0.814814        0.725403        0        
C4        C        0.21875        0.814814        0.725403        0        
C4        C        0.28125        0.814814        0.725403        0        
C4        C        0.34375        0.814814        0.725403        0        
C4        C        0.40625        0.814814        0.725403        0        
C4        C        0.46875        0.814814        0.725403        0        
C4        C        0.53125        0.814814        0.725403        0        
C4        C        0.59375        0.814814        0.725403        0        
C4        C        0.65625        0.814814        0.725403        0        
C4        C        0.71875        0.814814        0.725403        0        
C4        C        0.78125        0.814814        0.725403        0        
C4        C        0.84375        0.814814        0.725403        0        
C4        C        0.9062500000000001        0.814814        0.725403        0        
C4        C        0.9687500000000001        0.814814        0.725403        0        
C1        C        0.0        0.907408        0.725403        0        
C1        C        0.0625        0.907408        0.725403        0        
C1        C        0.125        0.907408        0.725403        0        
C1        C        0.1875        0.907408        0.725403        0        
C1        C        0.25        0.907408        0.725403        0        
C1        C        0.3125        0.907408        0.725403        0        
C1        C        0.375        0.907408        0.725403        0        
C1        C        0.4375        0.907408        0.725403        0        
C1        C        0.5        0.907408        0.725403        0        
C1        C        0.5625        0.907408        0.725403        0        
C1        C        0.625        0.907408        0.725403        0        
C1        C        0.6875        0.907408        0.725403        0        
C1        C        0.75        0.907408        0.725403        0        
C1        C        0.8125        0.907408        0.725403        0        
C1        C        0.875        0.907408        0.725403        0        
C1        C        0.9375        0.907408        0.725403        0        
C2        C        0.03125        0.962963        0.725403        0        
C2        C        0.09375        0.962963        0.725403        0        
C2        C        0.15625        0.962963        0.725403        0        
C2        C        0.21875        0.962963        0.725403        0        
C2        C        0.28125        0.962963        0.725403        0        
C2        C        0.34375        0.962963        0.725403        0        
C2        C        0.40625        0.962963        0.725403        0        
C2        C        0.46875        0.962963        0.725403        0        
C2        C        0.53125        0.962963        0.725403        0        
C2        C        0.59375        0.962963        0.725403        0        
C2        C        0.65625        0.962963        0.725403        0        
C2        C        0.71875        0.962963        0.725403        0        
C2        C        0.78125        0.962963        0.725403        0        
C2        C        0.84375        0.962963        0.725403        0        
C2        C        0.9062500000000001        0.962963        0.725403        0        
C2        C        0.9687500000000001        0.962963        0.725403        0        
C3        C        0.0        0.9814809999999999        0.725403        0        
C3        C        0.0625        0.9814809999999999        0.725403        0        
C3        C        0.125        0.9814809999999999        0.725403        0        
C3        C        0.1875        0.9814809999999999        0.725403        0        
C3        C        0.25        0.9814809999999999        0.725403        0        
C3        C        0.3125        0.9814809999999999        0.725403        0        
C3        C        0.375        0.9814809999999999        0.725403        0        
C3        C        0.4375        0.9814809999999999        0.725403        0        
C3        C        0.5        0.9814809999999999        0.725403        0        
C3        C        0.5625        0.9814809999999999        0.725403        0        
C3        C        0.625        0.9814809999999999        0.725403        0        
C3        C        0.6875        0.9814809999999999        0.725403        0        
C3        C        0.75        0.9814809999999999        0.725403        0        
C3        C        0.8125        0.9814809999999999        0.725403        0        
C3        C        0.875        0.9814809999999999        0.725403        0        
C3        C        0.9375        0.9814809999999999        0.725403        0        
C4        C        0.03125        0.925925        0.725403        0        
C4        C        0.09375        0.925925        0.725403        0        
C4        C        0.15625        0.925925        0.725403        0        
C4        C        0.21875        0.925925        0.725403        0        
C4        C        0.28125        0.925925        0.725403        0        
C4        C        0.34375        0.925925        0.725403        0        
C4        C        0.40625        0.925925        0.725403        0        
C4        C        0.46875        0.925925        0.725403        0        
C4        C        0.53125        0.925925        0.725403        0        
C4        C        0.59375        0.925925        0.725403        0        
C4        C        0.65625        0.925925        0.725403        0        
C4        C        0.71875        0.925925        0.725403        0        
C4        C        0.78125        0.925925        0.725403        0        
C4        C        0.84375        0.925925        0.725403        0        
C4        C        0.9062500000000001        0.925925        0.725403        0        
C4        C        0.9687500000000001        0.925925        0.725403        0        
C1        C        0.0        0.018519        0.785331        0        
C2        C        0.03125        0.074075        0.785331        0        
C3        C        0.0        0.092592        0.785331        0        
C4        C        0.03125        0.037037        0.785331        0        
C1        C        0.0        0.12963        0.785331        0        
C2        C        0.03125        0.185185        0.785331        0        
C3        C        0.0        0.203703        0.785331        0        
C4        C        0.03125        0.148148        0.785331        0        
C1        C        0.0        0.24074099999999998        0.785331        0        
C2        C        0.03125        0.296297        0.785331        0        
C3        C        0.0        0.314815        0.785331        0        
C4        C        0.03125        0.259259        0.785331        0        
C1        C        0.0        0.351852        0.785331        0        
C2        C        0.03125        0.407408        0.785331        0        
C3        C        0.0        0.42592500000000005        0.785331        0        
C4        C        0.03125        0.37037        0.785331        0        
C1        C        0.0        0.46296300000000007        0.785331        0        
C2        C        0.03125        0.518519        0.785331        0        
C3        C        0.0        0.537037        0.785331        0        
C4        C        0.03125        0.481481        0.785331        0        
C1        C        0.0        0.574075        0.785331        0        
C2        C        0.03125        0.62963        0.785331        0        
C3        C        0.0        0.648148        0.785331        0        
C4        C        0.03125        0.592592        0.785331        0        
C1        C        0.0625        0.018519        0.785331        0        
C2        C        0.09375        0.074075        0.785331        0        
C3        C        0.0625        0.092592        0.785331        0        
C4        C        0.09375        0.037037        0.785331        0        
C1        C        0.0625        0.12963        0.785331        0        
C2        C        0.09375        0.185185        0.785331        0        
C3        C        0.0625        0.203703        0.785331        0        
C4        C        0.09375        0.148148        0.785331        0        
C1        C        0.0625        0.24074099999999998        0.785331        0        
C2        C        0.09375        0.296297        0.785331        0        
C3        C        0.0625        0.314815        0.785331        0        
C4        C        0.09375        0.259259        0.785331        0        
C1        C        0.0625        0.351852        0.785331        0        
C2        C        0.09375        0.407408        0.785331        0        
C3        C        0.0625        0.42592500000000005        0.785331        0        
C4        C        0.09375        0.37037        0.785331        0        
C1        C        0.0625        0.46296300000000007        0.785331        0        
C2        C        0.09375        0.518519        0.785331        0        
C3        C        0.0625        0.537037        0.785331        0        
C4        C        0.09375        0.481481        0.785331        0        
C1        C        0.0625        0.574075        0.785331        0        
C2        C        0.09375        0.62963        0.785331        0        
C3        C        0.0625        0.648148        0.785331        0        
C4        C        0.09375        0.592592        0.785331        0        
C1        C        0.125        0.018519        0.785331        0        
C2        C        0.15625        0.074075        0.785331        0        
C3        C        0.125        0.092592        0.785331        0        
C4        C        0.15625        0.037037        0.785331        0        
C1        C        0.125        0.12963        0.785331        0        
C2        C        0.15625        0.185185        0.785331        0        
C3        C        0.125        0.203703        0.785331        0        
C4        C        0.15625        0.148148        0.785331        0        
C1        C        0.125        0.24074099999999998        0.785331        0        
C2        C        0.15625        0.296297        0.785331        0        
C3        C        0.125        0.314815        0.785331        0        
C4        C        0.15625        0.259259        0.785331        0        
C1        C        0.125        0.351852        0.785331        0        
C2        C        0.15625        0.407408        0.785331        0        
C3        C        0.125        0.42592500000000005        0.785331        0        
C4        C        0.15625        0.37037        0.785331        0        
C1        C        0.125        0.46296300000000007        0.785331        0        
C2        C        0.15625        0.518519        0.785331        0        
C3        C        0.125        0.537037        0.785331        0        
C4        C        0.15625        0.481481        0.785331        0        
C1        C        0.125        0.574075        0.785331        0        
C2        C        0.15625        0.62963        0.785331        0        
C3        C        0.125        0.648148        0.785331        0        
C4        C        0.15625        0.592592        0.785331        0        
C1        C        0.1875        0.018519        0.785331        0        
C2        C        0.21875        0.074075        0.785331        0        
C3        C        0.1875        0.092592        0.785331        0        
C4        C        0.21875        0.037037        0.785331        0        
C1        C        0.1875        0.12963        0.785331        0        
C2        C        0.21875        0.185185        0.785331        0        
C3        C        0.1875        0.203703        0.785331        0        
C4        C        0.21875        0.148148        0.785331        0        
C1        C        0.1875        0.24074099999999998        0.785331        0        
C2        C        0.21875        0.296297        0.785331        0        
C3        C        0.1875        0.314815        0.785331        0        
C4        C        0.21875        0.259259        0.785331        0        
C1        C        0.1875        0.351852        0.785331        0        
C2        C        0.21875        0.407408        0.785331        0        
C3        C        0.1875        0.42592500000000005        0.785331        0        
C4        C        0.21875        0.37037        0.785331        0        
C1        C        0.1875        0.46296300000000007        0.785331        0        
C2        C        0.21875        0.518519        0.785331        0        
C3        C        0.1875        0.537037        0.785331        0        
C4        C        0.21875        0.481481        0.785331        0        
C1        C        0.1875        0.574075        0.785331        0        
C2        C        0.21875        0.62963        0.785331        0        
C3        C        0.1875        0.648148        0.785331        0        
C4        C        0.21875        0.592592        0.785331        0        
C1        C        0.25        0.018519        0.785331        0        
C2        C        0.28125        0.074075        0.785331        0        
C3        C        0.25        0.092592        0.785331        0        
C4        C        0.28125        0.037037        0.785331        0        
C1        C        0.25        0.12963        0.785331        0        
C2        C        0.28125        0.185185        0.785331        0        
C3        C        0.25        0.203703        0.785331        0        
C4        C        0.28125        0.148148        0.785331        0        
C1        C        0.25        0.24074099999999998        0.785331        0        
C2        C        0.28125        0.296297        0.785331        0        
C3        C        0.25        0.314815        0.785331        0        
C4        C        0.28125        0.259259        0.785331        0        
C1        C        0.25        0.351852        0.785331        0        
C2        C        0.28125        0.407408        0.785331        0        
C3        C        0.25        0.42592500000000005        0.785331        0        
C4        C        0.28125        0.37037        0.785331        0        
C1        C        0.25        0.46296300000000007        0.785331        0        
C2        C        0.28125        0.518519        0.785331        0        
C3        C        0.25        0.537037        0.785331        0        
C4        C        0.28125        0.481481        0.785331        0        
C1        C        0.25        0.574075        0.785331        0        
C2        C        0.28125        0.62963        0.785331        0        
C3        C        0.25        0.648148        0.785331        0        
C4        C        0.28125        0.592592        0.785331        0        
C1        C        0.3125        0.018519        0.785331        0        
C2        C        0.34375        0.074075        0.785331        0        
C3        C        0.3125        0.092592        0.785331        0        
C4        C        0.34375        0.037037        0.785331        0        
C1        C        0.3125        0.12963        0.785331        0        
C2        C        0.34375        0.185185        0.785331        0        
C3        C        0.3125        0.203703        0.785331        0        
C4        C        0.34375        0.148148        0.785331        0        
C1        C        0.3125        0.24074099999999998        0.785331        0        
C2        C        0.34375        0.296297        0.785331        0        
C3        C        0.3125        0.314815        0.785331        0        
C4        C        0.34375        0.259259        0.785331        0        
C1        C        0.3125        0.351852        0.785331        0        
C2        C        0.34375        0.407408        0.785331        0        
C3        C        0.3125        0.42592500000000005        0.785331        0        
C4        C        0.34375        0.37037        0.785331        0        
C1        C        0.3125        0.46296300000000007        0.785331        0        
C2        C        0.34375        0.518519        0.785331        0        
C3        C        0.3125        0.537037        0.785331        0        
C4        C        0.34375        0.481481        0.785331        0        
C1        C        0.3125        0.574075        0.785331        0        
C2        C        0.34375        0.62963        0.785331        0        
C3        C        0.3125        0.648148        0.785331        0        
C4        C        0.34375        0.592592        0.785331        0        
C1        C        0.375        0.018519        0.785331        0        
C2        C        0.40625        0.074075        0.785331        0        
C3        C        0.375        0.092592        0.785331        0        
C4        C        0.40625        0.037037        0.785331        0        
C1        C        0.375        0.12963        0.785331        0        
C2        C        0.40625        0.185185        0.785331        0        
C3        C        0.375        0.203703        0.785331        0        
C4        C        0.40625        0.148148        0.785331        0        
C1        C        0.375        0.24074099999999998        0.785331        0        
C2        C        0.40625        0.296297        0.785331        0        
C3        C        0.375        0.314815        0.785331        0        
C4        C        0.40625        0.259259        0.785331        0        
C1        C        0.375        0.351852        0.785331        0        
C2        C        0.40625        0.407408        0.785331        0        
C3        C        0.375        0.42592500000000005        0.785331        0        
C4        C        0.40625        0.37037        0.785331        0        
C1        C        0.375        0.46296300000000007        0.785331        0        
C2        C        0.40625        0.518519        0.785331        0        
C3        C        0.375        0.537037        0.785331        0        
C4        C        0.40625        0.481481        0.785331        0        
C1        C        0.375        0.574075        0.785331        0        
C2        C        0.40625        0.62963        0.785331        0        
C3        C        0.375        0.648148        0.785331        0        
C4        C        0.40625        0.592592        0.785331        0        
C1        C        0.4375        0.018519        0.785331        0        
C2        C        0.46875        0.074075        0.785331        0        
C3        C        0.4375        0.092592        0.785331        0        
C4        C        0.46875        0.037037        0.785331        0        
C1        C        0.4375        0.12963        0.785331        0        
C2        C        0.46875        0.185185        0.785331        0        
C3        C        0.4375        0.203703        0.785331        0        
C4        C        0.46875        0.148148        0.785331        0        
C1        C        0.4375        0.24074099999999998        0.785331        0        
C2        C        0.46875        0.296297        0.785331        0        
C3        C        0.4375        0.314815        0.785331        0        
C4        C        0.46875        0.259259        0.785331        0        
C1        C        0.4375        0.351852        0.785331        0        
C2        C        0.46875        0.407408        0.785331        0        
C3        C        0.4375        0.42592500000000005        0.785331        0        
C4        C        0.46875        0.37037        0.785331        0        
C1        C        0.4375        0.46296300000000007        0.785331        0        
C2        C        0.46875        0.518519        0.785331        0        
C3        C        0.4375        0.537037        0.785331        0        
C4        C        0.46875        0.481481        0.785331        0        
C1        C        0.4375        0.574075        0.785331        0        
C2        C        0.46875        0.62963        0.785331        0        
C3        C        0.4375        0.648148        0.785331        0        
C4        C        0.46875        0.592592        0.785331        0        
C1        C        0.5        0.018519        0.785331        0        
C2        C        0.53125        0.074075        0.785331        0        
C3        C        0.5        0.092592        0.785331        0        
C4        C        0.53125        0.037037        0.785331        0        
C1        C        0.5        0.12963        0.785331        0        
C2        C        0.53125        0.185185        0.785331        0        
C3        C        0.5        0.203703        0.785331        0        
C4        C        0.53125        0.148148        0.785331        0        
C1        C        0.5        0.24074099999999998        0.785331        0        
C2        C        0.53125        0.296297        0.785331        0        
C3        C        0.5        0.314815        0.785331        0        
C4        C        0.53125        0.259259        0.785331        0        
C1        C        0.5        0.351852        0.785331        0        
C2        C        0.53125        0.407408        0.785331        0        
C3        C        0.5        0.42592500000000005        0.785331        0        
C4        C        0.53125        0.37037        0.785331        0        
C1        C        0.5        0.46296300000000007        0.785331        0        
C2        C        0.53125        0.518519        0.785331        0        
C3        C        0.5        0.537037        0.785331        0        
C4        C        0.53125        0.481481        0.785331        0        
C1        C        0.5        0.574075        0.785331        0        
C2        C        0.53125        0.62963        0.785331        0        
C3        C        0.5        0.648148        0.785331        0        
C4        C        0.53125        0.592592        0.785331        0        
C1        C        0.5625        0.018519        0.785331        0        
C2        C        0.59375        0.074075        0.785331        0        
C3        C        0.5625        0.092592        0.785331        0        
C4        C        0.59375        0.037037        0.785331        0        
C1        C        0.5625        0.12963        0.785331        0        
C2        C        0.59375        0.185185        0.785331        0        
C3        C        0.5625        0.203703        0.785331        0        
C4        C        0.59375        0.148148        0.785331        0        
C1        C        0.5625        0.24074099999999998        0.785331        0        
C2        C        0.59375        0.296297        0.785331        0        
C3        C        0.5625        0.314815        0.785331        0        
C4        C        0.59375        0.259259        0.785331        0        
C1        C        0.5625        0.351852        0.785331        0        
C2        C        0.59375        0.407408        0.785331        0        
C3        C        0.5625        0.42592500000000005        0.785331        0        
C4        C        0.59375        0.37037        0.785331        0        
C1        C        0.5625        0.46296300000000007        0.785331        0        
C2        C        0.59375        0.518519        0.785331        0        
C3        C        0.5625        0.537037        0.785331        0        
C4        C        0.59375        0.481481        0.785331        0        
C1        C        0.5625        0.574075        0.785331        0        
C2        C        0.59375        0.62963        0.785331        0        
C3        C        0.5625        0.648148        0.785331        0        
C4        C        0.59375        0.592592        0.785331        0        
C1        C        0.625        0.018519        0.785331        0        
C2        C        0.65625        0.074075        0.785331        0        
C3        C        0.625        0.092592        0.785331        0        
C4        C        0.65625        0.037037        0.785331        0        
C1        C        0.625        0.12963        0.785331        0        
C2        C        0.65625        0.185185        0.785331        0        
C3        C        0.625        0.203703        0.785331        0        
C4        C        0.65625        0.148148        0.785331        0        
C1        C        0.625        0.24074099999999998        0.785331        0        
C2        C        0.65625        0.296297        0.785331        0        
C3        C        0.625        0.314815        0.785331        0        
C4        C        0.65625        0.259259        0.785331        0        
C1        C        0.625        0.351852        0.785331        0        
C2        C        0.65625        0.407408        0.785331        0        
C3        C        0.625        0.42592500000000005        0.785331        0        
C4        C        0.65625        0.37037        0.785331        0        
C1        C        0.625        0.46296300000000007        0.785331        0        
C2        C        0.65625        0.518519        0.785331        0        
C3        C        0.625        0.537037        0.785331        0        
C4        C        0.65625        0.481481        0.785331        0        
C1        C        0.625        0.574075        0.785331        0        
C2        C        0.65625        0.62963        0.785331        0        
C3        C        0.625        0.648148        0.785331        0        
C4        C        0.65625        0.592592        0.785331        0        
C1        C        0.6875        0.018519        0.785331        0        
C2        C        0.71875        0.074075        0.785331        0        
C3        C        0.6875        0.092592        0.785331        0        
C4        C        0.71875        0.037037        0.785331        0        
C1        C        0.6875        0.12963        0.785331        0        
C2        C        0.71875        0.185185        0.785331        0        
C3        C        0.6875        0.203703        0.785331        0        
C4        C        0.71875        0.148148        0.785331        0        
C1        C        0.6875        0.24074099999999998        0.785331        0        
C2        C        0.71875        0.296297        0.785331        0        
C3        C        0.6875        0.314815        0.785331        0        
C4        C        0.71875        0.259259        0.785331        0        
C1        C        0.6875        0.351852        0.785331        0        
C2        C        0.71875        0.407408        0.785331        0        
C3        C        0.6875        0.42592500000000005        0.785331        0        
C4        C        0.71875        0.37037        0.785331        0        
C1        C        0.6875        0.46296300000000007        0.785331        0        
C2        C        0.71875        0.518519        0.785331        0        
C3        C        0.6875        0.537037        0.785331        0        
C4        C        0.71875        0.481481        0.785331        0        
C1        C        0.6875        0.574075        0.785331        0        
C2        C        0.71875        0.62963        0.785331        0        
C3        C        0.6875        0.648148        0.785331        0        
C4        C        0.71875        0.592592        0.785331        0        
C1        C        0.75        0.018519        0.785331        0        
C2        C        0.78125        0.074075        0.785331        0        
C3        C        0.75        0.092592        0.785331        0        
C4        C        0.78125        0.037037        0.785331        0        
C1        C        0.75        0.12963        0.785331        0        
C2        C        0.78125        0.185185        0.785331        0        
C3        C        0.75        0.203703        0.785331        0        
C4        C        0.78125        0.148148        0.785331        0        
C1        C        0.75        0.24074099999999998        0.785331        0        
C2        C        0.78125        0.296297        0.785331        0        
C3        C        0.75        0.314815        0.785331        0        
C4        C        0.78125        0.259259        0.785331        0        
C1        C        0.75        0.351852        0.785331        0        
C2        C        0.78125        0.407408        0.785331        0        
C3        C        0.75        0.42592500000000005        0.785331        0        
C4        C        0.78125        0.37037        0.785331        0        
C1        C        0.75        0.46296300000000007        0.785331        0        
C2        C        0.78125        0.518519        0.785331        0        
C3        C        0.75        0.537037        0.785331        0        
C4        C        0.78125        0.481481        0.785331        0        
C1        C        0.75        0.574075        0.785331        0        
C2        C        0.78125        0.62963        0.785331        0        
C3        C        0.75        0.648148        0.785331        0        
C4        C        0.78125        0.592592        0.785331        0        
C1        C        0.8125        0.018519        0.785331        0        
C2        C        0.84375        0.074075        0.785331        0        
C3        C        0.8125        0.092592        0.785331        0        
C4        C        0.84375        0.037037        0.785331        0        
C1        C        0.8125        0.12963        0.785331        0        
C2        C        0.84375        0.185185        0.785331        0        
C3        C        0.8125        0.203703        0.785331        0        
C4        C        0.84375        0.148148        0.785331        0        
C1        C        0.8125        0.24074099999999998        0.785331        0        
C2        C        0.84375        0.296297        0.785331        0        
C3        C        0.8125        0.314815        0.785331        0        
C4        C        0.84375        0.259259        0.785331        0        
C1        C        0.8125        0.351852        0.785331        0        
C2        C        0.84375        0.407408        0.785331        0        
C3        C        0.8125        0.42592500000000005        0.785331        0        
C4        C        0.84375        0.37037        0.785331        0        
C1        C        0.8125        0.46296300000000007        0.785331        0        
C2        C        0.84375        0.518519        0.785331        0        
C3        C        0.8125        0.537037        0.785331        0        
C4        C        0.84375        0.481481        0.785331        0        
C1        C        0.8125        0.574075        0.785331        0        
C2        C        0.84375        0.62963        0.785331        0        
C3        C        0.8125        0.648148        0.785331        0        
C4        C        0.84375        0.592592        0.785331        0        
C1        C        0.875        0.018519        0.785331        0        
C2        C        0.9062500000000001        0.074075        0.785331        0        
C3        C        0.875        0.092592        0.785331        0        
C4        C        0.9062500000000001        0.037037        0.785331        0        
C1        C        0.875        0.12963        0.785331        0        
C2        C        0.9062500000000001        0.185185        0.785331        0        
C3        C        0.875        0.203703        0.785331        0        
C4        C        0.9062500000000001        0.148148        0.785331        0        
C1        C        0.875        0.24074099999999998        0.785331        0        
C2        C        0.9062500000000001        0.296297        0.785331        0        
C3        C        0.875        0.314815        0.785331        0        
C4        C        0.9062500000000001        0.259259        0.785331        0        
C1        C        0.875        0.351852        0.785331        0        
C2        C        0.9062500000000001        0.407408        0.785331        0        
C3        C        0.875        0.42592500000000005        0.785331        0        
C4        C        0.9062500000000001        0.37037        0.785331        0        
C1        C        0.875        0.46296300000000007        0.785331        0        
C2        C        0.9062500000000001        0.518519        0.785331        0        
C3        C        0.875        0.537037        0.785331        0        
C4        C        0.9062500000000001        0.481481        0.785331        0        
C1        C        0.875        0.574075        0.785331        0        
C2        C        0.9062500000000001        0.62963        0.785331        0        
C3        C        0.875        0.648148        0.785331        0        
C4        C        0.9062500000000001        0.592592        0.785331        0        
C1        C        0.9375        0.018519        0.785331        0        
C2        C        0.9687500000000001        0.074075        0.785331        0        
C3        C        0.9375        0.092592        0.785331        0        
C4        C        0.9687500000000001        0.037037        0.785331        0        
C1        C        0.9375        0.12963        0.785331        0        
C2        C        0.9687500000000001        0.185185        0.785331        0        
C3        C        0.9375        0.203703        0.785331        0        
C4        C        0.9687500000000001        0.148148        0.785331        0        
C1        C        0.9375        0.24074099999999998        0.785331        0        
C2        C        0.9687500000000001        0.296297        0.785331        0        
C3        C        0.9375        0.314815        0.785331        0        
C4        C        0.9687500000000001        0.259259        0.785331        0        
C1        C        0.9375        0.351852        0.785331        0        
C2        C        0.9687500000000001        0.407408        0.785331        0        
C3        C        0.9375        0.42592500000000005        0.785331        0        
C4        C        0.9687500000000001        0.37037        0.785331        0        
C1        C        0.9375        0.46296300000000007        0.785331        0        
C2        C        0.9687500000000001        0.518519        0.785331        0        
C3        C        0.9375        0.537037        0.785331        0        
C4        C        0.9687500000000001        0.481481        0.785331        0        
C1        C        0.9375        0.574075        0.785331        0        
C2        C        0.9687500000000001        0.62963        0.785331        0        
C3        C        0.9375        0.648148        0.785331        0        
C4        C        0.9687500000000001        0.592592        0.785331        0        
C1        C        0.0        0.685186        0.785331        0        
C1        C        0.0625        0.685186        0.785331        0        
C1        C        0.125        0.685186        0.785331        0        
C1        C        0.1875        0.685186        0.785331        0        
C1        C        0.25        0.685186        0.785331        0        
C1        C        0.3125        0.685186        0.785331        0        
C1        C        0.375        0.685186        0.785331        0        
C1        C        0.4375        0.685186        0.785331        0        
C1        C        0.5        0.685186        0.785331        0        
C1        C        0.5625        0.685186        0.785331        0        
C1        C        0.625        0.685186        0.785331        0        
C1        C        0.6875        0.685186        0.785331        0        
C1        C        0.75        0.685186        0.785331        0        
C1        C        0.8125        0.685186        0.785331        0        
C1        C        0.875        0.685186        0.785331        0        
C1        C        0.9375        0.685186        0.785331        0        
C2        C        0.03125        0.740741        0.785331        0        
C2        C        0.09375        0.740741        0.785331        0        
C2        C        0.15625        0.740741        0.785331        0        
C2        C        0.21875        0.740741        0.785331        0        
C2        C        0.28125        0.740741        0.785331        0        
C2        C        0.34375        0.740741        0.785331        0        
C2        C        0.40625        0.740741        0.785331        0        
C2        C        0.46875        0.740741        0.785331        0        
C2        C        0.53125        0.740741        0.785331        0        
C2        C        0.59375        0.740741        0.785331        0        
C2        C        0.65625        0.740741        0.785331        0        
C2        C        0.71875        0.740741        0.785331        0        
C2        C        0.78125        0.740741        0.785331        0        
C2        C        0.84375        0.740741        0.785331        0        
C2        C        0.9062500000000001        0.740741        0.785331        0        
C2        C        0.9687500000000001        0.740741        0.785331        0        
C3        C        0.0        0.759259        0.785331        0        
C3        C        0.0625        0.759259        0.785331        0        
C3        C        0.125        0.759259        0.785331        0        
C3        C        0.1875        0.759259        0.785331        0        
C3        C        0.25        0.759259        0.785331        0        
C3        C        0.3125        0.759259        0.785331        0        
C3        C        0.375        0.759259        0.785331        0        
C3        C        0.4375        0.759259        0.785331        0        
C3        C        0.5        0.759259        0.785331        0        
C3        C        0.5625        0.759259        0.785331        0        
C3        C        0.625        0.759259        0.785331        0        
C3        C        0.6875        0.759259        0.785331        0        
C3        C        0.75        0.759259        0.785331        0        
C3        C        0.8125        0.759259        0.785331        0        
C3        C        0.875        0.759259        0.785331        0        
C3        C        0.9375        0.759259        0.785331        0        
C4        C        0.03125        0.703703        0.785331        0        
C4        C        0.09375        0.703703        0.785331        0        
C4        C        0.15625        0.703703        0.785331        0        
C4        C        0.21875        0.703703        0.785331        0        
C4        C        0.28125        0.703703        0.785331        0        
C4        C        0.34375        0.703703        0.785331        0        
C4        C        0.40625        0.703703        0.785331        0        
C4        C        0.46875        0.703703        0.785331        0        
C4        C        0.53125        0.703703        0.785331        0        
C4        C        0.59375        0.703703        0.785331        0        
C4        C        0.65625        0.703703        0.785331        0        
C4        C        0.71875        0.703703        0.785331        0        
C4        C        0.78125        0.703703        0.785331        0        
C4        C        0.84375        0.703703        0.785331        0        
C4        C        0.9062500000000001        0.703703        0.785331        0        
C4        C        0.9687500000000001        0.703703        0.785331        0        
C1        C        0.0        0.796297        0.785331        0        
C1        C        0.0625        0.796297        0.785331        0        
C1        C        0.125        0.796297        0.785331        0        
C1        C        0.1875        0.796297        0.785331        0        
C1        C        0.25        0.796297        0.785331        0        
C1        C        0.3125        0.796297        0.785331        0        
C1        C        0.375        0.796297        0.785331        0        
C1        C        0.4375        0.796297        0.785331        0        
C1        C        0.5        0.796297        0.785331        0        
C1        C        0.5625        0.796297        0.785331        0        
C1        C        0.625        0.796297        0.785331        0        
C1        C        0.6875        0.796297        0.785331        0        
C1        C        0.75        0.796297        0.785331        0        
C1        C        0.8125        0.796297        0.785331        0        
C1        C        0.875        0.796297        0.785331        0        
C1        C        0.9375        0.796297        0.785331        0        
C2        C        0.03125        0.851852        0.785331        0        
C2        C        0.09375        0.851852        0.785331        0        
C2        C        0.15625        0.851852        0.785331        0        
C2        C        0.21875        0.851852        0.785331        0        
C2        C        0.28125        0.851852        0.785331        0        
C2        C        0.34375        0.851852        0.785331        0        
C2        C        0.40625        0.851852        0.785331        0        
C2        C        0.46875        0.851852        0.785331        0        
C2        C        0.53125        0.851852        0.785331        0        
C2        C        0.59375        0.851852        0.785331        0        
C2        C        0.65625        0.851852        0.785331        0        
C2        C        0.71875        0.851852        0.785331        0        
C2        C        0.78125        0.851852        0.785331        0        
C2        C        0.84375        0.851852        0.785331        0        
C2        C        0.9062500000000001        0.851852        0.785331        0        
C2        C        0.9687500000000001        0.851852        0.785331        0        
C3        C        0.0        0.87037        0.785331        0        
C3        C        0.0625        0.87037        0.785331        0        
C3        C        0.125        0.87037        0.785331        0        
C3        C        0.1875        0.87037        0.785331        0        
C3        C        0.25        0.87037        0.785331        0        
C3        C        0.3125        0.87037        0.785331        0        
C3        C        0.375        0.87037        0.785331        0        
C3        C        0.4375        0.87037        0.785331        0        
C3        C        0.5        0.87037        0.785331        0        
C3        C        0.5625        0.87037        0.785331        0        
C3        C        0.625        0.87037        0.785331        0        
C3        C        0.6875        0.87037        0.785331        0        
C3        C        0.75        0.87037        0.785331        0        
C3        C        0.8125        0.87037        0.785331        0        
C3        C        0.875        0.87037        0.785331        0        
C3        C        0.9375        0.87037        0.785331        0        
C4        C        0.03125        0.814814        0.785331        0        
C4        C        0.09375        0.814814        0.785331        0        
C4        C        0.15625        0.814814        0.785331        0        
C4        C        0.21875        0.814814        0.785331        0        
C4        C        0.28125        0.814814        0.785331        0        
C4        C        0.34375        0.814814        0.785331        0        
C4        C        0.40625        0.814814        0.785331        0        
C4        C        0.46875        0.814814        0.785331        0        
C4        C        0.53125        0.814814        0.785331        0        
C4        C        0.59375        0.814814        0.785331        0        
C4        C        0.65625        0.814814        0.785331        0        
C4        C        0.71875        0.814814        0.785331        0        
C4        C        0.78125        0.814814        0.785331        0        
C4        C        0.84375        0.814814        0.785331        0        
C4        C        0.9062500000000001        0.814814        0.785331        0        
C4        C        0.9687500000000001        0.814814        0.785331        0        
C1        C        0.0        0.907408        0.785331        0        
C1        C        0.0625        0.907408        0.785331        0        
C1        C        0.125        0.907408        0.785331        0        
C1        C        0.1875        0.907408        0.785331        0        
C1        C        0.25        0.907408        0.785331        0        
C1        C        0.3125        0.907408        0.785331        0        
C1        C        0.375        0.907408        0.785331        0        
C1        C        0.4375        0.907408        0.785331        0        
C1        C        0.5        0.907408        0.785331        0        
C1        C        0.5625        0.907408        0.785331        0        
C1        C        0.625        0.907408        0.785331        0        
C1        C        0.6875        0.907408        0.785331        0        
C1        C        0.75        0.907408        0.785331        0        
C1        C        0.8125        0.907408        0.785331        0        
C1        C        0.875        0.907408        0.785331        0        
C1        C        0.9375        0.907408        0.785331        0        
C2        C        0.03125        0.962963        0.785331        0        
C2        C        0.09375        0.962963        0.785331        0        
C2        C        0.15625        0.962963        0.785331        0        
C2        C        0.21875        0.962963        0.785331        0        
C2        C        0.28125        0.962963        0.785331        0        
C2        C        0.34375        0.962963        0.785331        0        
C2        C        0.40625        0.962963        0.785331        0        
C2        C        0.46875        0.962963        0.785331        0        
C2        C        0.53125        0.962963        0.785331        0        
C2        C        0.59375        0.962963        0.785331        0        
C2        C        0.65625        0.962963        0.785331        0        
C2        C        0.71875        0.962963        0.785331        0        
C2        C        0.78125        0.962963        0.785331        0        
C2        C        0.84375        0.962963        0.785331        0        
C2        C        0.9062500000000001        0.962963        0.785331        0        
C2        C        0.9687500000000001        0.962963        0.785331        0        
C3        C        0.0        0.9814809999999999        0.785331        0        
C3        C        0.0625        0.9814809999999999        0.785331        0        
C3        C        0.125        0.9814809999999999        0.785331        0        
C3        C        0.1875        0.9814809999999999        0.785331        0        
C3        C        0.25        0.9814809999999999        0.785331        0        
C3        C        0.3125        0.9814809999999999        0.785331        0        
C3        C        0.375        0.9814809999999999        0.785331        0        
C3        C        0.4375        0.9814809999999999        0.785331        0        
C3        C        0.5        0.9814809999999999        0.785331        0        
C3        C        0.5625        0.9814809999999999        0.785331        0        
C3        C        0.625        0.9814809999999999        0.785331        0        
C3        C        0.6875        0.9814809999999999        0.785331        0        
C3        C        0.75        0.9814809999999999        0.785331        0        
C3        C        0.8125        0.9814809999999999        0.785331        0        
C3        C        0.875        0.9814809999999999        0.785331        0        
C3        C        0.9375        0.9814809999999999        0.785331        0        
C4        C        0.03125        0.925925        0.785331        0        
C4        C        0.09375        0.925925        0.785331        0        
C4        C        0.15625        0.925925        0.785331        0        
C4        C        0.21875        0.925925        0.785331        0        
C4        C        0.28125        0.925925        0.785331        0        
C4        C        0.34375        0.925925        0.785331        0        
C4        C        0.40625        0.925925        0.785331        0        
C4        C        0.46875        0.925925        0.785331        0        
C4        C        0.53125        0.925925        0.785331        0        
C4        C        0.59375        0.925925        0.785331        0        
C4        C        0.65625        0.925925        0.785331        0        
C4        C        0.71875        0.925925        0.785331        0        
C4        C        0.78125        0.925925        0.785331        0        
C4        C        0.84375        0.925925        0.785331        0        
C4        C        0.9062500000000001        0.925925        0.785331        0        
C4        C        0.9687500000000001        0.925925        0.785331        0        
O_OH        O        0.0        0.018519        0.36016100178890875        -0.64        
O_OH        O        0.0        0.12963        0.36016100178890875        -0.64        
O_OH        O        0.0        0.24074099999999998        0.36016100178890875        -0.64        
O_OH        O        0.0        0.351852        0.36016100178890875        -0.64        
O_OH        O        0.0        0.46296300000000007        0.36016100178890875        -0.64        
O_OH        O        0.0        0.574075        0.36016100178890875        -0.64        
O_OH        O        0.125        0.018519        0.36016100178890875        -0.64        
O_OH        O        0.125        0.12963        0.36016100178890875        -0.64        
O_OH        O        0.125        0.24074099999999998        0.36016100178890875        -0.64        
O_OH        O        0.125        0.351852        0.36016100178890875        -0.64        
O_OH        O        0.125        0.46296300000000007        0.36016100178890875        -0.64        
O_OH        O        0.125        0.574075        0.36016100178890875        -0.64        
O_OH        O        0.25        0.018519        0.36016100178890875        -0.64        
O_OH        O        0.25        0.12963        0.36016100178890875        -0.64        
O_OH        O        0.25        0.24074099999999998        0.36016100178890875        -0.64        
O_OH        O        0.25        0.351852        0.36016100178890875        -0.64        
O_OH        O        0.25        0.46296300000000007        0.36016100178890875        -0.64        
O_OH        O        0.25        0.574075        0.36016100178890875        -0.64        
O_OH        O        0.375        0.018519        0.36016100178890875        -0.64        
O_OH        O        0.375        0.12963        0.36016100178890875        -0.64        
O_OH        O        0.375        0.24074099999999998        0.36016100178890875        -0.64        
O_OH        O        0.375        0.351852        0.36016100178890875        -0.64        
O_OH        O        0.375        0.46296300000000007        0.36016100178890875        -0.64        
O_OH        O        0.375        0.574075        0.36016100178890875        -0.64        
O_OH        O        0.5        0.018519        0.36016100178890875        -0.64        
O_OH        O        0.5        0.12963        0.36016100178890875        -0.64        
O_OH        O        0.5        0.24074099999999998        0.36016100178890875        -0.64        
O_OH        O        0.5        0.351852        0.36016100178890875        -0.64        
O_OH        O        0.5        0.46296300000000007        0.36016100178890875        -0.64        
O_OH        O        0.5        0.574075        0.36016100178890875        -0.64        
O_OH        O        0.625        0.018519        0.36016100178890875        -0.64        
O_OH        O        0.625        0.12963        0.36016100178890875        -0.64        
O_OH        O        0.625        0.24074099999999998        0.36016100178890875        -0.64        
O_OH        O        0.625        0.351852        0.36016100178890875        -0.64        
O_OH        O        0.625        0.46296300000000007        0.36016100178890875        -0.64        
O_OH        O        0.625        0.574075        0.36016100178890875        -0.64        
O_OH        O        0.75        0.018519        0.36016100178890875        -0.64        
O_OH        O        0.75        0.12963        0.36016100178890875        -0.64        
O_OH        O        0.75        0.24074099999999998        0.36016100178890875        -0.64        
O_OH        O        0.75        0.351852        0.36016100178890875        -0.64        
O_OH        O        0.75        0.46296300000000007        0.36016100178890875        -0.64        
O_OH        O        0.75        0.574075        0.36016100178890875        -0.64        
O_OH        O        0.875        0.018519        0.36016100178890875        -0.64        
O_OH        O        0.875        0.12963        0.36016100178890875        -0.64        
O_OH        O        0.875        0.24074099999999998        0.36016100178890875        -0.64        
O_OH        O        0.875        0.351852        0.36016100178890875        -0.64        
O_OH        O        0.875        0.46296300000000007        0.36016100178890875        -0.64        
O_OH        O        0.875        0.574075        0.36016100178890875        -0.64        
O_OH        O        0.0        0.685186        0.36016100178890875        -0.64        
O_OH        O        0.125        0.685186        0.36016100178890875        -0.64        
O_OH        O        0.25        0.685186        0.36016100178890875        -0.64        
O_OH        O        0.375        0.685186        0.36016100178890875        -0.64        
O_OH        O        0.5        0.685186        0.36016100178890875        -0.64        
O_OH        O        0.625        0.685186        0.36016100178890875        -0.64        
O_OH        O        0.75        0.685186        0.36016100178890875        -0.64        
O_OH        O        0.875        0.685186        0.36016100178890875        -0.64        
O_OH        O        0.0        0.796297        0.36016100178890875        -0.64        
O_OH        O        0.125        0.796297        0.36016100178890875        -0.64        
O_OH        O        0.25        0.796297        0.36016100178890875        -0.64        
O_OH        O        0.375        0.796297        0.36016100178890875        -0.64        
O_OH        O        0.5        0.796297        0.36016100178890875        -0.64        
O_OH        O        0.625        0.796297        0.36016100178890875        -0.64        
O_OH        O        0.75        0.796297        0.36016100178890875        -0.64        
O_OH        O        0.875        0.796297        0.36016100178890875        -0.64        
O_OH        O        0.0        0.907408        0.36016100178890875        -0.64        
O_OH        O        0.125        0.907408        0.36016100178890875        -0.64        
O_OH        O        0.25        0.907408        0.36016100178890875        -0.64        
O_OH        O        0.375        0.907408        0.36016100178890875        -0.64        
O_OH        O        0.5        0.907408        0.36016100178890875        -0.64        
O_OH        O        0.625        0.907408        0.36016100178890875        -0.64        
O_OH        O        0.75        0.907408        0.36016100178890875        -0.64        
O_OH        O        0.875        0.907408        0.36016100178890875        -0.64        
O_OH        O        0.0        0.018519        0.6398389982110914        -0.64        
O_OH        O        0.0        0.12963        0.6398389982110914        -0.64        
O_OH        O        0.0        0.24074099999999998        0.6398389982110914        -0.64        
O_OH        O        0.0        0.351852        0.6398389982110914        -0.64        
O_OH        O        0.0        0.46296300000000007        0.6398389982110914        -0.64        
O_OH        O        0.0        0.574075        0.6398389982110914        -0.64        
O_OH        O        0.125        0.018519        0.6398389982110914        -0.64        
O_OH        O        0.125        0.12963        0.6398389982110914        -0.64        
O_OH        O        0.125        0.24074099999999998        0.6398389982110914        -0.64        
O_OH        O        0.125        0.351852        0.6398389982110914        -0.64        
O_OH        O        0.125        0.46296300000000007        0.6398389982110914        -0.64        
O_OH        O        0.125        0.574075        0.6398389982110914        -0.64        
O_OH        O        0.25        0.018519        0.6398389982110914        -0.64        
O_OH        O        0.25        0.12963        0.6398389982110914        -0.64        
O_OH        O        0.25        0.24074099999999998        0.6398389982110914        -0.64        
O_OH        O        0.25        0.351852        0.6398389982110914        -0.64        
O_OH        O        0.25        0.46296300000000007        0.6398389982110914        -0.64        
O_OH        O        0.25        0.574075        0.6398389982110914        -0.64        
O_OH        O        0.375        0.018519        0.6398389982110914        -0.64        
O_OH        O        0.375        0.12963        0.6398389982110914        -0.64        
O_OH        O        0.375        0.24074099999999998        0.6398389982110914        -0.64        
O_OH        O        0.375        0.351852        0.6398389982110914        -0.64        
O_OH        O        0.375        0.46296300000000007        0.6398389982110914        -0.64        
O_OH        O        0.375        0.574075        0.6398389982110914        -0.64        
O_OH        O        0.5        0.018519        0.6398389982110914        -0.64        
O_OH        O        0.5        0.12963        0.6398389982110914        -0.64        
O_OH        O        0.5        0.24074099999999998        0.6398389982110914        -0.64        
O_OH        O        0.5        0.351852        0.6398389982110914        -0.64        
O_OH        O        0.5        0.46296300000000007        0.6398389982110914        -0.64        
O_OH        O        0.5        0.574075        0.6398389982110914        -0.64        
O_OH        O        0.625        0.018519        0.6398389982110914        -0.64        
O_OH        O        0.625        0.12963        0.6398389982110914        -0.64        
O_OH        O        0.625        0.24074099999999998        0.6398389982110914        -0.64        
O_OH        O        0.625        0.351852        0.6398389982110914        -0.64        
O_OH        O        0.625        0.46296300000000007        0.6398389982110914        -0.64        
O_OH        O        0.625        0.574075        0.6398389982110914        -0.64        
O_OH        O        0.75        0.018519        0.6398389982110914        -0.64        
O_OH        O        0.75        0.12963        0.6398389982110914        -0.64        
O_OH        O        0.75        0.24074099999999998        0.6398389982110914        -0.64        
O_OH        O        0.75        0.351852        0.6398389982110914        -0.64        
O_OH        O        0.75        0.46296300000000007        0.6398389982110914        -0.64        
O_OH        O        0.75        0.574075        0.6398389982110914        -0.64        
O_OH        O        0.875        0.018519        0.6398389982110914        -0.64        
O_OH        O        0.875        0.12963        0.6398389982110914        -0.64        
O_OH        O        0.875        0.24074099999999998        0.6398389982110914        -0.64        
O_OH        O        0.875        0.351852        0.6398389982110914        -0.64        
O_OH        O        0.875        0.46296300000000007        0.6398389982110914        -0.64        
O_OH        O        0.875        0.574075        0.6398389982110914        -0.64        
O_OH        O        0.0        0.685186        0.6398389982110914        -0.64        
O_OH        O        0.125        0.685186        0.6398389982110914        -0.64        
O_OH        O        0.25        0.685186        0.6398389982110914        -0.64        
O_OH        O        0.375        0.685186        0.6398389982110914        -0.64        
O_OH        O        0.5        0.685186        0.6398389982110914        -0.64        
O_OH        O        0.625        0.685186        0.6398389982110914        -0.64        
O_OH        O        0.75        0.685186        0.6398389982110914        -0.64        
O_OH        O        0.875        0.685186        0.6398389982110914        -0.64        
O_OH        O        0.0        0.796297        0.6398389982110914        -0.64        
O_OH        O        0.125        0.796297        0.6398389982110914        -0.64        
O_OH        O        0.25        0.796297        0.6398389982110914        -0.64        
O_OH        O        0.375        0.796297        0.6398389982110914        -0.64        
O_OH        O        0.5        0.796297        0.6398389982110914        -0.64        
O_OH        O        0.625        0.796297        0.6398389982110914        -0.64        
O_OH        O        0.75        0.796297        0.6398389982110914        -0.64        
O_OH        O        0.875        0.796297        0.6398389982110914        -0.64        
O_OH        O        0.0        0.907408        0.6398389982110914        -0.64        
O_OH        O        0.125        0.907408        0.6398389982110914        -0.64        
O_OH        O        0.25        0.907408        0.6398389982110914        -0.64        
O_OH        O        0.375        0.907408        0.6398389982110914        -0.64        
O_OH        O        0.5        0.907408        0.6398389982110914        -0.64        
O_OH        O        0.625        0.907408        0.6398389982110914        -0.64        
O_OH        O        0.75        0.907408        0.6398389982110914        -0.64        
O_OH        O        0.875        0.907408        0.6398389982110914        -0.64        
H_OH        H        -0.01349066139091992        0.037446594185500656        0.36617529516994635        0.44        
H_OH        H        -0.0018881257047401586        0.15300321377284362        0.36617529516994635        0.44        
H_OH        H        -0.020607364684605917        0.2508654630986547        0.36617529516994635        0.44        
H_OH        H        0.02281274959997794        0.3531104928881188        0.36617529516994635        0.44        
H_OH        H        -0.02281330101481094        0.46421091386092633        0.36617529516994635        0.44        
H_OH        H        0.011060916234424817        0.5945963109366257        0.36617529516994635        0.44        
H_OH        H        0.10840604679450665        0.03463913714360606        0.36617529516994635        0.44        
H_OH        H        0.10999669592973563        0.14731696676716213        0.36617529516994635        0.44        
H_OH        H        0.10828680113799959        0.25673077638013714        0.36617529516994635        0.44        
H_OH        H        0.10225136675554343        0.3540112903802617        0.36617529516994635        0.44        
H_OH        H        0.10763817882586484        0.47820699851308307        0.36617529516994635        0.44        
H_OH        H        0.1312123018794062        0.5966446897837642        0.36617529516994635        0.44        
H_OH        H        0.236654010987011        0.03755437951828758        0.36617529516994635        0.44        
H_OH        H        0.27265507788270693        0.13265313040781207        0.36617529516994635        0.44        
H_OH        H        0.26816361593296056        0.2549663166782923        0.36617529516994635        0.44        
H_OH        H        0.25536425951314184        0.3746497548528486        0.36617529516994635        0.44        
H_OH        H        0.23511582239590118        0.4807557273115424        0.36617529516994635        0.44        
H_OH        H        0.24953409303927532        0.5975235730739301        0.36617529516994635        0.44        
H_OH        H        0.39071256570296875        0.03554452834971807        0.36617529516994635        0.44        
H_OH        H        0.36929348067677964        0.15234000334242487        0.36617529516994635        0.44        
H_OH        H        0.356616005972804        0.25466475981606207        0.36617529516994635        0.44        
H_OH        H        0.39668763239990257        0.35922434151188287        0.36617529516994635        0.44        
H_OH        H        0.39249793568029195        0.47804208304421686        0.36617529516994635        0.44        
H_OH        H        0.39709584564989603        0.5800344282095963        0.36617529516994635        0.44        
H_OH        H        0.519682655960265        0.030425721072515146        0.36617529516994635        0.44        
H_OH        H        0.5162454518257337        0.14612001044196254        0.36617529516994635        0.44        
H_OH        H        0.522538775304573        0.24457230132777097        0.36617529516994635        0.44        
H_OH        H        0.47804586586315684        0.35833996871107954        0.36617529516994635        0.44        
H_OH        H        0.5134561753029875        0.4819164486625377        0.36617529516994635        0.44        
H_OH        H        0.49794843915505543        0.5974336926709266        0.36617529516994635        0.44        
H_OH        H        0.6139607937388859        0.03905262764124211        0.36617529516994635        0.44        
H_OH        H        0.6040423452980863        0.13896594859324538        0.36617529516994635        0.44        
H_OH        H        0.64019790894979        0.258251985403867        0.36617529516994635        0.44        
H_OH        H        0.636985055207843        0.37181892861356314        0.36617529516994635        0.44        
H_OH        H        0.6185620042442519        0.48546593019106143        0.36617529516994635        0.44        
H_OH        H        0.6469622953162864        0.5805337927772423        0.36617529516994635        0.44        
H_OH        H        0.7595121495651044        0.03984281291847468        0.36617529516994635        0.44        
H_OH        H        0.7298018128589531        0.14058909153049043        0.36617529516994635        0.44        
H_OH        H        0.7438641755662994        0.26333272781703415        0.36617529516994635        0.44        
H_OH        H        0.7652960168039193        0.36927272375931236        0.36617529516994635        0.44        
H_OH        H        0.7659160150540222        0.47978818536199336        0.36617529516994635        0.44        
H_OH        H        0.7708936159695913        0.5835610180593503        0.36617529516994635        0.44        
H_OH        H        0.8526207743088516        0.02323407327926725        0.36617529516994635        0.44        
H_OH        H        0.8977615606875315        0.13164059298002015        0.36617529516994635        0.44        
H_OH        H        0.8524110774890131        0.24424725564735336        0.36617529516994635        0.44        
H_OH        H        0.8787183583256836        0.3749927154545964        0.36617529516994635        0.44        
H_OH        H        0.854072857653006        0.47237080764428585        0.36617529516994635        0.44        
H_OH        H        0.852280434576757        0.5765357834123446        0.36617529516994635        0.44        
H_OH        H        0.016287240996000568        0.7016325081608036        0.36617529516994635        0.44        
H_OH        H        0.10789104856445587        0.7007283958965818        0.36617529516994635        0.44        
H_OH        H        0.2285786094977985        0.6933375436243747        0.36617529516994635        0.44        
H_OH        H        0.38066107744261346        0.7079079864417889        0.36617529516994635        0.44        
H_OH        H        0.47745392384460567        0.6889717582129641        0.36617529516994635        0.44        
H_OH        H        0.6044649693203799        0.6954641905371055        0.36617529516994635        0.44        
H_OH        H        0.7691740086043487        0.6979374688891934        0.36617529516994635        0.44        
H_OH        H        0.8796989652722847        0.708137984645484        0.36617529516994635        0.44        
H_OH        H        0.02105903898025281        0.8053893281519614        0.36617529516994635        0.44        
H_OH        H        0.13899249905855382        0.8148366365561166        0.36617529516994635        0.44        
H_OH        H        0.24484210764388165        0.8191448910918728        0.36617529516994635        0.44        
H_OH        H        0.38170968712998643        0.8187161249041245        0.36617529516994635        0.44        
H_OH        H        0.5180211430325651        0.8107120247115404        0.36617529516994635        0.44        
H_OH        H        0.6203234394165882        0.8192538068392274        0.36617529516994635        0.44        
H_OH        H        0.7571404640576608        0.818575445995905        0.36617529516994635        0.44        
H_OH        H        0.8523765432610023        0.7995601688756421        0.36617529516994635        0.44        
H_OH        H        0.015229727878057169        0.9248898258483428        0.36617529516994635        0.44        
H_OH        H        0.14647280768857845        0.9154156996062104        0.36617529516994635        0.44        
H_OH        H        0.23998332353488097        0.9284869220699532        0.36617529516994635        0.44        
H_OH        H        0.37958043832100724        0.9303852226021796        0.36617529516994635        0.44        
H_OH        H        0.4935837719477666        0.9299174815614026        0.36617529516994635        0.44        
H_OH        H        0.6254935595386424        0.9308559768210235        0.36617529516994635        0.44        
H_OH        H        0.7698377497128495        0.9190402898948987        0.36617529516994635        0.44        
H_OH        H        0.8631712450412024        0.9274729202187194        0.36617529516994635        0.44        
H_OH        H        -0.009643167612919027        0.0397807024898648        0.6338247048300537        0.44        
H_OH        H        -0.01438867645707682        0.14784724221373663        0.6338247048300537        0.44        
H_OH        H        0.01970356768171273        0.2526112133929878        0.6338247048300537        0.44        
H_OH        H        0.02080583494459829        0.36153922427143714        0.6338247048300537        0.44        
H_OH        H        -0.011534163594873569        0.4832078663730358        0.6338247048300537        0.44        
H_OH        H        -0.007539337122482055        0.5962145140119502        0.6338247048300537        0.44        
H_OH        H        0.10977940909505433        0.03600921038819274        0.6338247048300537        0.44        
H_OH        H        0.11042638995789449        0.1476916454234221        0.6338247048300537        0.44        
H_OH        H        0.12816812006198963        0.2639678425330377        0.6338247048300537        0.44        
H_OH        H        0.10831882793882791        0.3678769844750283        0.6338247048300537        0.44        
H_OH        H        0.10235479054782644        0.4660630746635018        0.6338247048300537        0.44        
H_OH        H        0.12737470873368253        0.5974014027564175        0.6338247048300537        0.44        
H_OH        H        0.2543507065390578        0.04154322961298778        0.6338247048300537        0.44        
H_OH        H        0.26351817140858047        0.1485368968351061        0.6338247048300537        0.44        
H_OH        H        0.23471587633329907        0.2581727216300951        0.6338247048300537        0.44        
H_OH        H        0.2724777095823195        0.35604437962773505        0.6338247048300537        0.44        
H_OH        H        0.2286791127403373        0.47138766673427285        0.6338247048300537        0.44        
H_OH        H        0.24178502682451014        0.5959596980778973        0.6338247048300537        0.44        
H_OH        H        0.36868733802304654        0.04105932204031844        0.6338247048300537        0.44        
H_OH        H        0.3974287114690911        0.1340903822307822        0.6338247048300537        0.44        
H_OH        H        0.3527252344550136        0.2459513716401978        0.6338247048300537        0.44        
H_OH        H        0.36134414264001025        0.3706543280608013        0.6338247048300537        0.44        
H_OH        H        0.3753307244224375        0.48641399307270117        0.6338247048300537        0.44        
H_OH        H        0.39783301427979983        0.5748553432011753        0.6338247048300537        0.44        
H_OH        H        0.5033909626769528        0.04171265786327373        0.6338247048300537        0.44        
H_OH        H        0.522499785827261        0.1336956583454718        0.6338247048300537        0.44        
H_OH        H        0.522676074382769        0.2435934033716395        0.6338247048300537        0.44        
H_OH        H        0.4878326657986138        0.37170240054147174        0.6338247048300537        0.44        
H_OH        H        0.48555494376202724        0.4811331575805133        0.6338247048300537        0.44        
H_OH        H        0.5143976067705802        0.5922848045883881        0.6338247048300537        0.44        
H_OH        H        0.6267412287062797        0.0419042305556158        0.6338247048300537        0.44        
H_OH        H        0.6107795545601274        0.14798593499940904        0.6338247048300537        0.44        
H_OH        H        0.6244614012093643        0.2641879320580882        0.6338247048300537        0.44        
H_OH        H        0.6256744097590647        0.3752952293204304        0.6338247048300537        0.44        
H_OH        H        0.6071791123882202        0.47763806330895886        0.6338247048300537        0.44        
H_OH        H        0.6469731834102123        0.5804946447385587        0.6338247048300537        0.44        
H_OH        H        0.7400361992479552        0.0396243168373135        0.6338247048300537        0.44        
H_OH        H        0.7517370869196682        0.15301555518513166        0.6338247048300537        0.44        
H_OH        H        0.7299796411924514        0.252038755999848        0.6338247048300537        0.44        
H_OH        H        0.7400162127726366        0.37294736018951624        0.6338247048300537        0.44        
H_OH        H        0.7281147128267883        0.46969164612297376        0.6338247048300537        0.44        
H_OH        H        0.7290336730139383        0.5833904042791889        0.6338247048300537        0.44        
H_OH        H        0.8887947661148748        0.03721415498958097        0.6338247048300537        0.44        
H_OH        H        0.8799822677995431        0.15251892756843244        0.6338247048300537        0.44        
H_OH        H        0.85221977825064        0.24251492368536753        0.6338247048300537        0.44        
H_OH        H        0.884798322264225        0.3730388100759619        0.6338247048300537        0.44        
H_OH        H        0.8734134954751742        0.4863598298965615        0.6338247048300537        0.44        
H_OH        H        0.8589290549543589        0.5907442510264189        0.6338247048300537        0.44        
H_OH        H        0.022719900048910367        0.6876435251754826        0.6338247048300537        0.44        
H_OH        H        0.1433129129322603        0.6992081318297306        0.6338247048300537        0.44        
H_OH        H        0.23148152511489953        0.6989206585156393        0.6338247048300537        0.44        
H_OH        H        0.35366404292589476        0.6935703616363044        0.6338247048300537        0.44        
H_OH        H        0.5178159521509207        0.6998673776706642        0.6338247048300537        0.44        
H_OH        H        0.6023908653931965        0.6885521590064757        0.6338247048300537        0.44        
H_OH        H        0.7290503867742202        0.694540950662292        0.6338247048300537        0.44        
H_OH        H        0.8542036972770467        0.694894772106718        0.6338247048300537        0.44        
H_OH        H        -0.021450800008339547        0.8043666241320397        0.6338247048300537        0.44        
H_OH        H        0.14677629748194249        0.8033885378393013        0.6338247048300537        0.44        
H_OH        H        0.272844386024987        0.796544988137819        0.6338247048300537        0.44        
H_OH        H        0.38067392904773184        0.8190156078081154        0.6338247048300537        0.44        
H_OH        H        0.5145638502127476        0.8143669403559601        0.6338247048300537        0.44        
H_OH        H        0.6067530871207547        0.8104095202540544        0.6338247048300537        0.44        
H_OH        H        0.7285613902640945        0.8044006939893271        0.6338247048300537        0.44        
H_OH        H        0.8885740224158786        0.8151616770454668        0.6338247048300537        0.44        
H_OH        H        0.008902606725232458        0.92900741582248        0.6338247048300537        0.44        
H_OH        H        0.11811056648361959        0.9297695960298065        0.6338247048300537        0.44        
H_OH        H        0.26116059105053224        0.9278723557977747        0.6338247048300537        0.44        
H_OH        H        0.39661505904896516        0.9150016472197408        0.6338247048300537        0.44        
H_OH        H        0.5131994310411591        0.926550776003408        0.6338247048300537        0.44        
H_OH        H        0.6374176326894867        0.9270943670015699        0.6338247048300537        0.44        
H_OH        H        0.7633098696540278        0.926470013948483        0.6338247048300537        0.44        
H_OH        H        0.8601215460491802        0.9252057717929977        0.6338247048300537        0.44        
