data_graphite_ortho

_audit_creation_method RASPA-1.0
_audit_creation_date 2012-2-3
_audit_author_name 'David Dubbeldam'

_cell_length_a    39.36    
_cell_length_b    38.34    
_cell_length_c    34.6    
_cell_angle_alpha 90
_cell_angle_beta  90
_cell_angle_gamma 90
_cell_volume      52213.56      

_symmetry_cell_setting          triclinic
_symmetry_space_group_name_Hall 'P 1'
_symmetry_space_group_name_H-M  'P 1'
_symmetry_Int_Tables_number     1

_symmetry_equiv_pos_as_xyz 'x,y,z'

loop_
_atom_site_label
_atom_site_type_symbol
_atom_site_fract_x
_atom_site_fract_y
_atom_site_fract_z
_atom_site_charge
C_FG        C        0.0        0.018519        0.05113291907514451        0.2        
C2        C        0.03125        0.074075        0.05113291907514451        0        
C3        C        0.0        0.092592        0.05113291907514451        0        
C4        C        0.03125        0.037037        0.05113291907514451        0        
C1        C        0.0        0.12963        0.05113291907514451        0        
C2        C        0.03125        0.185185        0.05113291907514451        0        
C3        C        0.0        0.203703        0.05113291907514451        0        
C4        C        0.03125        0.148148        0.05113291907514451        0        
C1        C        0.0        0.24074099999999998        0.05113291907514451        0        
C2        C        0.03125        0.296297        0.05113291907514451        0        
C_FG        C        0.0        0.314815        0.05113291907514451        0.2        
C4        C        0.03125        0.259259        0.05113291907514451        0        
C1        C        0.0        0.351852        0.05113291907514451        0        
C2        C        0.03125        0.407408        0.05113291907514451        0        
C3        C        0.0        0.42592500000000005        0.05113291907514451        0        
C4        C        0.03125        0.37037        0.05113291907514451        0        
C1        C        0.0        0.46296300000000007        0.05113291907514451        0        
C2        C        0.03125        0.518519        0.05113291907514451        0        
C3        C        0.0        0.537037        0.05113291907514451        0        
C4        C        0.03125        0.481481        0.05113291907514451        0        
C_FG        C        0.0        0.574075        0.05113291907514451        0.2        
C2        C        0.03125        0.62963        0.05113291907514451        0        
C3        C        0.0        0.648148        0.05113291907514451        0        
C4        C        0.03125        0.592592        0.05113291907514451        0        
C1        C        0.0625        0.018519        0.05113291907514451        0        
C2        C        0.09375        0.074075        0.05113291907514451        0        
C3        C        0.0625        0.092592        0.05113291907514451        0        
C4        C        0.09375        0.037037        0.05113291907514451        0        
C1        C        0.0625        0.12963        0.05113291907514451        0        
C2        C        0.09375        0.185185        0.05113291907514451        0        
C3        C        0.0625        0.203703        0.05113291907514451        0        
C4        C        0.09375        0.148148        0.05113291907514451        0        
C1        C        0.0625        0.24074099999999998        0.05113291907514451        0        
C2        C        0.09375        0.296297        0.05113291907514451        0        
C3        C        0.0625        0.314815        0.05113291907514451        0        
C4        C        0.09375        0.259259        0.05113291907514451        0        
C1        C        0.0625        0.351852        0.05113291907514451        0        
C2        C        0.09375        0.407408        0.05113291907514451        0        
C3        C        0.0625        0.42592500000000005        0.05113291907514451        0        
C4        C        0.09375        0.37037        0.05113291907514451        0        
C1        C        0.0625        0.46296300000000007        0.05113291907514451        0        
C2        C        0.09375        0.518519        0.05113291907514451        0        
C3        C        0.0625        0.537037        0.05113291907514451        0        
C4        C        0.09375        0.481481        0.05113291907514451        0        
C1        C        0.0625        0.574075        0.05113291907514451        0        
C2        C        0.09375        0.62963        0.05113291907514451        0        
C3        C        0.0625        0.648148        0.05113291907514451        0        
C4        C        0.09375        0.592592        0.05113291907514451        0        
C1        C        0.125        0.018519        0.05113291907514451        0        
C2        C        0.15625        0.074075        0.05113291907514451        0        
C3        C        0.125        0.092592        0.05113291907514451        0        
C4        C        0.15625        0.037037        0.05113291907514451        0        
C1        C        0.125        0.12963        0.05113291907514451        0        
C2        C        0.15625        0.185185        0.05113291907514451        0        
C3        C        0.125        0.203703        0.05113291907514451        0        
C4        C        0.15625        0.148148        0.05113291907514451        0        
C1        C        0.125        0.24074099999999998        0.05113291907514451        0        
C2        C        0.15625        0.296297        0.05113291907514451        0        
C3        C        0.125        0.314815        0.05113291907514451        0        
C4        C        0.15625        0.259259        0.05113291907514451        0        
C1        C        0.125        0.351852        0.05113291907514451        0        
C2        C        0.15625        0.407408        0.05113291907514451        0        
C3        C        0.125        0.42592500000000005        0.05113291907514451        0        
C4        C        0.15625        0.37037        0.05113291907514451        0        
C1        C        0.125        0.46296300000000007        0.05113291907514451        0        
C2        C        0.15625        0.518519        0.05113291907514451        0        
C3        C        0.125        0.537037        0.05113291907514451        0        
C4        C        0.15625        0.481481        0.05113291907514451        0        
C1        C        0.125        0.574075        0.05113291907514451        0        
C2        C        0.15625        0.62963        0.05113291907514451        0        
C3        C        0.125        0.648148        0.05113291907514451        0        
C4        C        0.15625        0.592592        0.05113291907514451        0        
C1        C        0.1875        0.018519        0.05113291907514451        0        
C2        C        0.21875        0.074075        0.05113291907514451        0        
C3        C        0.1875        0.092592        0.05113291907514451        0        
C4        C        0.21875        0.037037        0.05113291907514451        0        
C1        C        0.1875        0.12963        0.05113291907514451        0        
C2        C        0.21875        0.185185        0.05113291907514451        0        
C3        C        0.1875        0.203703        0.05113291907514451        0        
C4        C        0.21875        0.148148        0.05113291907514451        0        
C1        C        0.1875        0.24074099999999998        0.05113291907514451        0        
C2        C        0.21875        0.296297        0.05113291907514451        0        
C3        C        0.1875        0.314815        0.05113291907514451        0        
C4        C        0.21875        0.259259        0.05113291907514451        0        
C1        C        0.1875        0.351852        0.05113291907514451        0        
C2        C        0.21875        0.407408        0.05113291907514451        0        
C3        C        0.1875        0.42592500000000005        0.05113291907514451        0        
C4        C        0.21875        0.37037        0.05113291907514451        0        
C1        C        0.1875        0.46296300000000007        0.05113291907514451        0        
C2        C        0.21875        0.518519        0.05113291907514451        0        
C3        C        0.1875        0.537037        0.05113291907514451        0        
C4        C        0.21875        0.481481        0.05113291907514451        0        
C1        C        0.1875        0.574075        0.05113291907514451        0        
C2        C        0.21875        0.62963        0.05113291907514451        0        
C3        C        0.1875        0.648148        0.05113291907514451        0        
C4        C        0.21875        0.592592        0.05113291907514451        0        
C_FG        C        0.25        0.018519        0.05113291907514451        0.2        
C2        C        0.28125        0.074075        0.05113291907514451        0        
C3        C        0.25        0.092592        0.05113291907514451        0        
C4        C        0.28125        0.037037        0.05113291907514451        0        
C1        C        0.25        0.12963        0.05113291907514451        0        
C2        C        0.28125        0.185185        0.05113291907514451        0        
C3        C        0.25        0.203703        0.05113291907514451        0        
C4        C        0.28125        0.148148        0.05113291907514451        0        
C1        C        0.25        0.24074099999999998        0.05113291907514451        0        
C2        C        0.28125        0.296297        0.05113291907514451        0        
C_FG        C        0.25        0.314815        0.05113291907514451        0.2        
C4        C        0.28125        0.259259        0.05113291907514451        0        
C1        C        0.25        0.351852        0.05113291907514451        0        
C2        C        0.28125        0.407408        0.05113291907514451        0        
C3        C        0.25        0.42592500000000005        0.05113291907514451        0        
C4        C        0.28125        0.37037        0.05113291907514451        0        
C1        C        0.25        0.46296300000000007        0.05113291907514451        0        
C2        C        0.28125        0.518519        0.05113291907514451        0        
C3        C        0.25        0.537037        0.05113291907514451        0        
C4        C        0.28125        0.481481        0.05113291907514451        0        
C_FG        C        0.25        0.574075        0.05113291907514451        0.2        
C2        C        0.28125        0.62963        0.05113291907514451        0        
C3        C        0.25        0.648148        0.05113291907514451        0        
C4        C        0.28125        0.592592        0.05113291907514451        0        
C1        C        0.3125        0.018519        0.05113291907514451        0        
C2        C        0.34375        0.074075        0.05113291907514451        0        
C3        C        0.3125        0.092592        0.05113291907514451        0        
C4        C        0.34375        0.037037        0.05113291907514451        0        
C1        C        0.3125        0.12963        0.05113291907514451        0        
C2        C        0.34375        0.185185        0.05113291907514451        0        
C3        C        0.3125        0.203703        0.05113291907514451        0        
C4        C        0.34375        0.148148        0.05113291907514451        0        
C1        C        0.3125        0.24074099999999998        0.05113291907514451        0        
C2        C        0.34375        0.296297        0.05113291907514451        0        
C3        C        0.3125        0.314815        0.05113291907514451        0        
C4        C        0.34375        0.259259        0.05113291907514451        0        
C1        C        0.3125        0.351852        0.05113291907514451        0        
C2        C        0.34375        0.407408        0.05113291907514451        0        
C3        C        0.3125        0.42592500000000005        0.05113291907514451        0        
C4        C        0.34375        0.37037        0.05113291907514451        0        
C1        C        0.3125        0.46296300000000007        0.05113291907514451        0        
C2        C        0.34375        0.518519        0.05113291907514451        0        
C3        C        0.3125        0.537037        0.05113291907514451        0        
C4        C        0.34375        0.481481        0.05113291907514451        0        
C1        C        0.3125        0.574075        0.05113291907514451        0        
C2        C        0.34375        0.62963        0.05113291907514451        0        
C3        C        0.3125        0.648148        0.05113291907514451        0        
C4        C        0.34375        0.592592        0.05113291907514451        0        
C1        C        0.375        0.018519        0.05113291907514451        0        
C2        C        0.40625        0.074075        0.05113291907514451        0        
C3        C        0.375        0.092592        0.05113291907514451        0        
C4        C        0.40625        0.037037        0.05113291907514451        0        
C1        C        0.375        0.12963        0.05113291907514451        0        
C2        C        0.40625        0.185185        0.05113291907514451        0        
C3        C        0.375        0.203703        0.05113291907514451        0        
C4        C        0.40625        0.148148        0.05113291907514451        0        
C1        C        0.375        0.24074099999999998        0.05113291907514451        0        
C2        C        0.40625        0.296297        0.05113291907514451        0        
C3        C        0.375        0.314815        0.05113291907514451        0        
C4        C        0.40625        0.259259        0.05113291907514451        0        
C1        C        0.375        0.351852        0.05113291907514451        0        
C2        C        0.40625        0.407408        0.05113291907514451        0        
C3        C        0.375        0.42592500000000005        0.05113291907514451        0        
C4        C        0.40625        0.37037        0.05113291907514451        0        
C1        C        0.375        0.46296300000000007        0.05113291907514451        0        
C2        C        0.40625        0.518519        0.05113291907514451        0        
C3        C        0.375        0.537037        0.05113291907514451        0        
C4        C        0.40625        0.481481        0.05113291907514451        0        
C1        C        0.375        0.574075        0.05113291907514451        0        
C2        C        0.40625        0.62963        0.05113291907514451        0        
C3        C        0.375        0.648148        0.05113291907514451        0        
C4        C        0.40625        0.592592        0.05113291907514451        0        
C1        C        0.4375        0.018519        0.05113291907514451        0        
C2        C        0.46875        0.074075        0.05113291907514451        0        
C3        C        0.4375        0.092592        0.05113291907514451        0        
C4        C        0.46875        0.037037        0.05113291907514451        0        
C1        C        0.4375        0.12963        0.05113291907514451        0        
C2        C        0.46875        0.185185        0.05113291907514451        0        
C3        C        0.4375        0.203703        0.05113291907514451        0        
C4        C        0.46875        0.148148        0.05113291907514451        0        
C1        C        0.4375        0.24074099999999998        0.05113291907514451        0        
C2        C        0.46875        0.296297        0.05113291907514451        0        
C3        C        0.4375        0.314815        0.05113291907514451        0        
C4        C        0.46875        0.259259        0.05113291907514451        0        
C1        C        0.4375        0.351852        0.05113291907514451        0        
C2        C        0.46875        0.407408        0.05113291907514451        0        
C3        C        0.4375        0.42592500000000005        0.05113291907514451        0        
C4        C        0.46875        0.37037        0.05113291907514451        0        
C1        C        0.4375        0.46296300000000007        0.05113291907514451        0        
C2        C        0.46875        0.518519        0.05113291907514451        0        
C3        C        0.4375        0.537037        0.05113291907514451        0        
C4        C        0.46875        0.481481        0.05113291907514451        0        
C1        C        0.4375        0.574075        0.05113291907514451        0        
C2        C        0.46875        0.62963        0.05113291907514451        0        
C3        C        0.4375        0.648148        0.05113291907514451        0        
C4        C        0.46875        0.592592        0.05113291907514451        0        
C_FG        C        0.5        0.018519        0.05113291907514451        0.2        
C2        C        0.53125        0.074075        0.05113291907514451        0        
C3        C        0.5        0.092592        0.05113291907514451        0        
C4        C        0.53125        0.037037        0.05113291907514451        0        
C1        C        0.5        0.12963        0.05113291907514451        0        
C2        C        0.53125        0.185185        0.05113291907514451        0        
C3        C        0.5        0.203703        0.05113291907514451        0        
C4        C        0.53125        0.148148        0.05113291907514451        0        
C1        C        0.5        0.24074099999999998        0.05113291907514451        0        
C2        C        0.53125        0.296297        0.05113291907514451        0        
C_FG        C        0.5        0.314815        0.05113291907514451        0.2        
C4        C        0.53125        0.259259        0.05113291907514451        0        
C1        C        0.5        0.351852        0.05113291907514451        0        
C2        C        0.53125        0.407408        0.05113291907514451        0        
C3        C        0.5        0.42592500000000005        0.05113291907514451        0        
C4        C        0.53125        0.37037        0.05113291907514451        0        
C1        C        0.5        0.46296300000000007        0.05113291907514451        0        
C2        C        0.53125        0.518519        0.05113291907514451        0        
C3        C        0.5        0.537037        0.05113291907514451        0        
C4        C        0.53125        0.481481        0.05113291907514451        0        
C_FG        C        0.5        0.574075        0.05113291907514451        0.2        
C2        C        0.53125        0.62963        0.05113291907514451        0        
C3        C        0.5        0.648148        0.05113291907514451        0        
C4        C        0.53125        0.592592        0.05113291907514451        0        
C1        C        0.5625        0.018519        0.05113291907514451        0        
C2        C        0.59375        0.074075        0.05113291907514451        0        
C3        C        0.5625        0.092592        0.05113291907514451        0        
C4        C        0.59375        0.037037        0.05113291907514451        0        
C1        C        0.5625        0.12963        0.05113291907514451        0        
C2        C        0.59375        0.185185        0.05113291907514451        0        
C3        C        0.5625        0.203703        0.05113291907514451        0        
C4        C        0.59375        0.148148        0.05113291907514451        0        
C1        C        0.5625        0.24074099999999998        0.05113291907514451        0        
C2        C        0.59375        0.296297        0.05113291907514451        0        
C3        C        0.5625        0.314815        0.05113291907514451        0        
C4        C        0.59375        0.259259        0.05113291907514451        0        
C1        C        0.5625        0.351852        0.05113291907514451        0        
C2        C        0.59375        0.407408        0.05113291907514451        0        
C3        C        0.5625        0.42592500000000005        0.05113291907514451        0        
C4        C        0.59375        0.37037        0.05113291907514451        0        
C1        C        0.5625        0.46296300000000007        0.05113291907514451        0        
C2        C        0.59375        0.518519        0.05113291907514451        0        
C3        C        0.5625        0.537037        0.05113291907514451        0        
C4        C        0.59375        0.481481        0.05113291907514451        0        
C1        C        0.5625        0.574075        0.05113291907514451        0        
C2        C        0.59375        0.62963        0.05113291907514451        0        
C3        C        0.5625        0.648148        0.05113291907514451        0        
C4        C        0.59375        0.592592        0.05113291907514451        0        
C1        C        0.625        0.018519        0.05113291907514451        0        
C2        C        0.65625        0.074075        0.05113291907514451        0        
C3        C        0.625        0.092592        0.05113291907514451        0        
C4        C        0.65625        0.037037        0.05113291907514451        0        
C1        C        0.625        0.12963        0.05113291907514451        0        
C2        C        0.65625        0.185185        0.05113291907514451        0        
C3        C        0.625        0.203703        0.05113291907514451        0        
C4        C        0.65625        0.148148        0.05113291907514451        0        
C1        C        0.625        0.24074099999999998        0.05113291907514451        0        
C2        C        0.65625        0.296297        0.05113291907514451        0        
C3        C        0.625        0.314815        0.05113291907514451        0        
C4        C        0.65625        0.259259        0.05113291907514451        0        
C1        C        0.625        0.351852        0.05113291907514451        0        
C2        C        0.65625        0.407408        0.05113291907514451        0        
C3        C        0.625        0.42592500000000005        0.05113291907514451        0        
C4        C        0.65625        0.37037        0.05113291907514451        0        
C1        C        0.625        0.46296300000000007        0.05113291907514451        0        
C2        C        0.65625        0.518519        0.05113291907514451        0        
C3        C        0.625        0.537037        0.05113291907514451        0        
C4        C        0.65625        0.481481        0.05113291907514451        0        
C1        C        0.625        0.574075        0.05113291907514451        0        
C2        C        0.65625        0.62963        0.05113291907514451        0        
C3        C        0.625        0.648148        0.05113291907514451        0        
C4        C        0.65625        0.592592        0.05113291907514451        0        
C1        C        0.6875        0.018519        0.05113291907514451        0        
C2        C        0.71875        0.074075        0.05113291907514451        0        
C3        C        0.6875        0.092592        0.05113291907514451        0        
C4        C        0.71875        0.037037        0.05113291907514451        0        
C1        C        0.6875        0.12963        0.05113291907514451        0        
C2        C        0.71875        0.185185        0.05113291907514451        0        
C3        C        0.6875        0.203703        0.05113291907514451        0        
C4        C        0.71875        0.148148        0.05113291907514451        0        
C1        C        0.6875        0.24074099999999998        0.05113291907514451        0        
C2        C        0.71875        0.296297        0.05113291907514451        0        
C3        C        0.6875        0.314815        0.05113291907514451        0        
C4        C        0.71875        0.259259        0.05113291907514451        0        
C1        C        0.6875        0.351852        0.05113291907514451        0        
C2        C        0.71875        0.407408        0.05113291907514451        0        
C3        C        0.6875        0.42592500000000005        0.05113291907514451        0        
C4        C        0.71875        0.37037        0.05113291907514451        0        
C1        C        0.6875        0.46296300000000007        0.05113291907514451        0        
C2        C        0.71875        0.518519        0.05113291907514451        0        
C3        C        0.6875        0.537037        0.05113291907514451        0        
C4        C        0.71875        0.481481        0.05113291907514451        0        
C1        C        0.6875        0.574075        0.05113291907514451        0        
C2        C        0.71875        0.62963        0.05113291907514451        0        
C3        C        0.6875        0.648148        0.05113291907514451        0        
C4        C        0.71875        0.592592        0.05113291907514451        0        
C_FG        C        0.75        0.018519        0.05113291907514451        0.2        
C2        C        0.78125        0.074075        0.05113291907514451        0        
C3        C        0.75        0.092592        0.05113291907514451        0        
C4        C        0.78125        0.037037        0.05113291907514451        0        
C1        C        0.75        0.12963        0.05113291907514451        0        
C2        C        0.78125        0.185185        0.05113291907514451        0        
C3        C        0.75        0.203703        0.05113291907514451        0        
C4        C        0.78125        0.148148        0.05113291907514451        0        
C1        C        0.75        0.24074099999999998        0.05113291907514451        0        
C2        C        0.78125        0.296297        0.05113291907514451        0        
C_FG        C        0.75        0.314815        0.05113291907514451        0.2        
C4        C        0.78125        0.259259        0.05113291907514451        0        
C1        C        0.75        0.351852        0.05113291907514451        0        
C2        C        0.78125        0.407408        0.05113291907514451        0        
C3        C        0.75        0.42592500000000005        0.05113291907514451        0        
C4        C        0.78125        0.37037        0.05113291907514451        0        
C1        C        0.75        0.46296300000000007        0.05113291907514451        0        
C2        C        0.78125        0.518519        0.05113291907514451        0        
C3        C        0.75        0.537037        0.05113291907514451        0        
C4        C        0.78125        0.481481        0.05113291907514451        0        
C_FG        C        0.75        0.574075        0.05113291907514451        0.2        
C2        C        0.78125        0.62963        0.05113291907514451        0        
C3        C        0.75        0.648148        0.05113291907514451        0        
C4        C        0.78125        0.592592        0.05113291907514451        0        
C1        C        0.8125        0.018519        0.05113291907514451        0        
C2        C        0.84375        0.074075        0.05113291907514451        0        
C3        C        0.8125        0.092592        0.05113291907514451        0        
C4        C        0.84375        0.037037        0.05113291907514451        0        
C1        C        0.8125        0.12963        0.05113291907514451        0        
C2        C        0.84375        0.185185        0.05113291907514451        0        
C3        C        0.8125        0.203703        0.05113291907514451        0        
C4        C        0.84375        0.148148        0.05113291907514451        0        
C1        C        0.8125        0.24074099999999998        0.05113291907514451        0        
C2        C        0.84375        0.296297        0.05113291907514451        0        
C3        C        0.8125        0.314815        0.05113291907514451        0        
C4        C        0.84375        0.259259        0.05113291907514451        0        
C1        C        0.8125        0.351852        0.05113291907514451        0        
C2        C        0.84375        0.407408        0.05113291907514451        0        
C3        C        0.8125        0.42592500000000005        0.05113291907514451        0        
C4        C        0.84375        0.37037        0.05113291907514451        0        
C1        C        0.8125        0.46296300000000007        0.05113291907514451        0        
C2        C        0.84375        0.518519        0.05113291907514451        0        
C3        C        0.8125        0.537037        0.05113291907514451        0        
C4        C        0.84375        0.481481        0.05113291907514451        0        
C1        C        0.8125        0.574075        0.05113291907514451        0        
C2        C        0.84375        0.62963        0.05113291907514451        0        
C3        C        0.8125        0.648148        0.05113291907514451        0        
C4        C        0.84375        0.592592        0.05113291907514451        0        
C1        C        0.875        0.018519        0.05113291907514451        0        
C2        C        0.9062500000000001        0.074075        0.05113291907514451        0        
C3        C        0.875        0.092592        0.05113291907514451        0        
C4        C        0.9062500000000001        0.037037        0.05113291907514451        0        
C1        C        0.875        0.12963        0.05113291907514451        0        
C2        C        0.9062500000000001        0.185185        0.05113291907514451        0        
C3        C        0.875        0.203703        0.05113291907514451        0        
C4        C        0.9062500000000001        0.148148        0.05113291907514451        0        
C1        C        0.875        0.24074099999999998        0.05113291907514451        0        
C2        C        0.9062500000000001        0.296297        0.05113291907514451        0        
C3        C        0.875        0.314815        0.05113291907514451        0        
C4        C        0.9062500000000001        0.259259        0.05113291907514451        0        
C1        C        0.875        0.351852        0.05113291907514451        0        
C2        C        0.9062500000000001        0.407408        0.05113291907514451        0        
C3        C        0.875        0.42592500000000005        0.05113291907514451        0        
C4        C        0.9062500000000001        0.37037        0.05113291907514451        0        
C1        C        0.875        0.46296300000000007        0.05113291907514451        0        
C2        C        0.9062500000000001        0.518519        0.05113291907514451        0        
C3        C        0.875        0.537037        0.05113291907514451        0        
C4        C        0.9062500000000001        0.481481        0.05113291907514451        0        
C1        C        0.875        0.574075        0.05113291907514451        0        
C2        C        0.9062500000000001        0.62963        0.05113291907514451        0        
C3        C        0.875        0.648148        0.05113291907514451        0        
C4        C        0.9062500000000001        0.592592        0.05113291907514451        0        
C1        C        0.9375        0.018519        0.05113291907514451        0        
C2        C        0.9687500000000001        0.074075        0.05113291907514451        0        
C3        C        0.9375        0.092592        0.05113291907514451        0        
C4        C        0.9687500000000001        0.037037        0.05113291907514451        0        
C1        C        0.9375        0.12963        0.05113291907514451        0        
C2        C        0.9687500000000001        0.185185        0.05113291907514451        0        
C3        C        0.9375        0.203703        0.05113291907514451        0        
C4        C        0.9687500000000001        0.148148        0.05113291907514451        0        
C1        C        0.9375        0.24074099999999998        0.05113291907514451        0        
C2        C        0.9687500000000001        0.296297        0.05113291907514451        0        
C3        C        0.9375        0.314815        0.05113291907514451        0        
C4        C        0.9687500000000001        0.259259        0.05113291907514451        0        
C1        C        0.9375        0.351852        0.05113291907514451        0        
C2        C        0.9687500000000001        0.407408        0.05113291907514451        0        
C3        C        0.9375        0.42592500000000005        0.05113291907514451        0        
C4        C        0.9687500000000001        0.37037        0.05113291907514451        0        
C1        C        0.9375        0.46296300000000007        0.05113291907514451        0        
C2        C        0.9687500000000001        0.518519        0.05113291907514451        0        
C3        C        0.9375        0.537037        0.05113291907514451        0        
C4        C        0.9687500000000001        0.481481        0.05113291907514451        0        
C1        C        0.9375        0.574075        0.05113291907514451        0        
C2        C        0.9687500000000001        0.62963        0.05113291907514451        0        
C3        C        0.9375        0.648148        0.05113291907514451        0        
C4        C        0.9687500000000001        0.592592        0.05113291907514451        0        
C1        C        0.0        0.685186        0.05113291907514451        0        
C1        C        0.0625        0.685186        0.05113291907514451        0        
C1        C        0.125        0.685186        0.05113291907514451        0        
C1        C        0.1875        0.685186        0.05113291907514451        0        
C1        C        0.25        0.685186        0.05113291907514451        0        
C1        C        0.3125        0.685186        0.05113291907514451        0        
C1        C        0.375        0.685186        0.05113291907514451        0        
C1        C        0.4375        0.685186        0.05113291907514451        0        
C1        C        0.5        0.685186        0.05113291907514451        0        
C1        C        0.5625        0.685186        0.05113291907514451        0        
C1        C        0.625        0.685186        0.05113291907514451        0        
C1        C        0.6875        0.685186        0.05113291907514451        0        
C1        C        0.75        0.685186        0.05113291907514451        0        
C1        C        0.8125        0.685186        0.05113291907514451        0        
C1        C        0.875        0.685186        0.05113291907514451        0        
C1        C        0.9375        0.685186        0.05113291907514451        0        
C2        C        0.03125        0.740741        0.05113291907514451        0        
C2        C        0.09375        0.740741        0.05113291907514451        0        
C2        C        0.15625        0.740741        0.05113291907514451        0        
C2        C        0.21875        0.740741        0.05113291907514451        0        
C2        C        0.28125        0.740741        0.05113291907514451        0        
C2        C        0.34375        0.740741        0.05113291907514451        0        
C2        C        0.40625        0.740741        0.05113291907514451        0        
C2        C        0.46875        0.740741        0.05113291907514451        0        
C2        C        0.53125        0.740741        0.05113291907514451        0        
C2        C        0.59375        0.740741        0.05113291907514451        0        
C2        C        0.65625        0.740741        0.05113291907514451        0        
C2        C        0.71875        0.740741        0.05113291907514451        0        
C2        C        0.78125        0.740741        0.05113291907514451        0        
C2        C        0.84375        0.740741        0.05113291907514451        0        
C2        C        0.9062500000000001        0.740741        0.05113291907514451        0        
C2        C        0.9687500000000001        0.740741        0.05113291907514451        0        
C3        C        0.0        0.759259        0.05113291907514451        0        
C3        C        0.0625        0.759259        0.05113291907514451        0        
C3        C        0.125        0.759259        0.05113291907514451        0        
C3        C        0.1875        0.759259        0.05113291907514451        0        
C3        C        0.25        0.759259        0.05113291907514451        0        
C3        C        0.3125        0.759259        0.05113291907514451        0        
C3        C        0.375        0.759259        0.05113291907514451        0        
C3        C        0.4375        0.759259        0.05113291907514451        0        
C3        C        0.5        0.759259        0.05113291907514451        0        
C3        C        0.5625        0.759259        0.05113291907514451        0        
C3        C        0.625        0.759259        0.05113291907514451        0        
C3        C        0.6875        0.759259        0.05113291907514451        0        
C3        C        0.75        0.759259        0.05113291907514451        0        
C3        C        0.8125        0.759259        0.05113291907514451        0        
C3        C        0.875        0.759259        0.05113291907514451        0        
C3        C        0.9375        0.759259        0.05113291907514451        0        
C4        C        0.03125        0.703703        0.05113291907514451        0        
C4        C        0.09375        0.703703        0.05113291907514451        0        
C4        C        0.15625        0.703703        0.05113291907514451        0        
C4        C        0.21875        0.703703        0.05113291907514451        0        
C4        C        0.28125        0.703703        0.05113291907514451        0        
C4        C        0.34375        0.703703        0.05113291907514451        0        
C4        C        0.40625        0.703703        0.05113291907514451        0        
C4        C        0.46875        0.703703        0.05113291907514451        0        
C4        C        0.53125        0.703703        0.05113291907514451        0        
C4        C        0.59375        0.703703        0.05113291907514451        0        
C4        C        0.65625        0.703703        0.05113291907514451        0        
C4        C        0.71875        0.703703        0.05113291907514451        0        
C4        C        0.78125        0.703703        0.05113291907514451        0        
C4        C        0.84375        0.703703        0.05113291907514451        0        
C4        C        0.9062500000000001        0.703703        0.05113291907514451        0        
C4        C        0.9687500000000001        0.703703        0.05113291907514451        0        
C1        C        0.0        0.796297        0.05113291907514451        0        
C1        C        0.0625        0.796297        0.05113291907514451        0        
C1        C        0.125        0.796297        0.05113291907514451        0        
C1        C        0.1875        0.796297        0.05113291907514451        0        
C1        C        0.25        0.796297        0.05113291907514451        0        
C1        C        0.3125        0.796297        0.05113291907514451        0        
C1        C        0.375        0.796297        0.05113291907514451        0        
C1        C        0.4375        0.796297        0.05113291907514451        0        
C1        C        0.5        0.796297        0.05113291907514451        0        
C1        C        0.5625        0.796297        0.05113291907514451        0        
C1        C        0.625        0.796297        0.05113291907514451        0        
C1        C        0.6875        0.796297        0.05113291907514451        0        
C1        C        0.75        0.796297        0.05113291907514451        0        
C1        C        0.8125        0.796297        0.05113291907514451        0        
C1        C        0.875        0.796297        0.05113291907514451        0        
C1        C        0.9375        0.796297        0.05113291907514451        0        
C2        C        0.03125        0.851852        0.05113291907514451        0        
C2        C        0.09375        0.851852        0.05113291907514451        0        
C2        C        0.15625        0.851852        0.05113291907514451        0        
C2        C        0.21875        0.851852        0.05113291907514451        0        
C2        C        0.28125        0.851852        0.05113291907514451        0        
C2        C        0.34375        0.851852        0.05113291907514451        0        
C2        C        0.40625        0.851852        0.05113291907514451        0        
C2        C        0.46875        0.851852        0.05113291907514451        0        
C2        C        0.53125        0.851852        0.05113291907514451        0        
C2        C        0.59375        0.851852        0.05113291907514451        0        
C2        C        0.65625        0.851852        0.05113291907514451        0        
C2        C        0.71875        0.851852        0.05113291907514451        0        
C2        C        0.78125        0.851852        0.05113291907514451        0        
C2        C        0.84375        0.851852        0.05113291907514451        0        
C2        C        0.9062500000000001        0.851852        0.05113291907514451        0        
C2        C        0.9687500000000001        0.851852        0.05113291907514451        0        
C_FG        C        0.0        0.87037        0.05113291907514451        0.2        
C3        C        0.0625        0.87037        0.05113291907514451        0        
C3        C        0.125        0.87037        0.05113291907514451        0        
C3        C        0.1875        0.87037        0.05113291907514451        0        
C_FG        C        0.25        0.87037        0.05113291907514451        0.2        
C3        C        0.3125        0.87037        0.05113291907514451        0        
C3        C        0.375        0.87037        0.05113291907514451        0        
C3        C        0.4375        0.87037        0.05113291907514451        0        
C_FG        C        0.5        0.87037        0.05113291907514451        0.2        
C3        C        0.5625        0.87037        0.05113291907514451        0        
C3        C        0.625        0.87037        0.05113291907514451        0        
C3        C        0.6875        0.87037        0.05113291907514451        0        
C_FG        C        0.75        0.87037        0.05113291907514451        0.2        
C3        C        0.8125        0.87037        0.05113291907514451        0        
C3        C        0.875        0.87037        0.05113291907514451        0        
C3        C        0.9375        0.87037        0.05113291907514451        0        
C4        C        0.03125        0.814814        0.05113291907514451        0        
C4        C        0.09375        0.814814        0.05113291907514451        0        
C4        C        0.15625        0.814814        0.05113291907514451        0        
C4        C        0.21875        0.814814        0.05113291907514451        0        
C4        C        0.28125        0.814814        0.05113291907514451        0        
C4        C        0.34375        0.814814        0.05113291907514451        0        
C4        C        0.40625        0.814814        0.05113291907514451        0        
C4        C        0.46875        0.814814        0.05113291907514451        0        
C4        C        0.53125        0.814814        0.05113291907514451        0        
C4        C        0.59375        0.814814        0.05113291907514451        0        
C4        C        0.65625        0.814814        0.05113291907514451        0        
C4        C        0.71875        0.814814        0.05113291907514451        0        
C4        C        0.78125        0.814814        0.05113291907514451        0        
C4        C        0.84375        0.814814        0.05113291907514451        0        
C4        C        0.9062500000000001        0.814814        0.05113291907514451        0        
C4        C        0.9687500000000001        0.814814        0.05113291907514451        0        
C1        C        0.0        0.907408        0.05113291907514451        0        
C1        C        0.0625        0.907408        0.05113291907514451        0        
C1        C        0.125        0.907408        0.05113291907514451        0        
C1        C        0.1875        0.907408        0.05113291907514451        0        
C1        C        0.25        0.907408        0.05113291907514451        0        
C1        C        0.3125        0.907408        0.05113291907514451        0        
C1        C        0.375        0.907408        0.05113291907514451        0        
C1        C        0.4375        0.907408        0.05113291907514451        0        
C1        C        0.5        0.907408        0.05113291907514451        0        
C1        C        0.5625        0.907408        0.05113291907514451        0        
C1        C        0.625        0.907408        0.05113291907514451        0        
C1        C        0.6875        0.907408        0.05113291907514451        0        
C1        C        0.75        0.907408        0.05113291907514451        0        
C1        C        0.8125        0.907408        0.05113291907514451        0        
C1        C        0.875        0.907408        0.05113291907514451        0        
C1        C        0.9375        0.907408        0.05113291907514451        0        
C2        C        0.03125        0.962963        0.05113291907514451        0        
C2        C        0.09375        0.962963        0.05113291907514451        0        
C2        C        0.15625        0.962963        0.05113291907514451        0        
C2        C        0.21875        0.962963        0.05113291907514451        0        
C2        C        0.28125        0.962963        0.05113291907514451        0        
C2        C        0.34375        0.962963        0.05113291907514451        0        
C2        C        0.40625        0.962963        0.05113291907514451        0        
C2        C        0.46875        0.962963        0.05113291907514451        0        
C2        C        0.53125        0.962963        0.05113291907514451        0        
C2        C        0.59375        0.962963        0.05113291907514451        0        
C2        C        0.65625        0.962963        0.05113291907514451        0        
C2        C        0.71875        0.962963        0.05113291907514451        0        
C2        C        0.78125        0.962963        0.05113291907514451        0        
C2        C        0.84375        0.962963        0.05113291907514451        0        
C2        C        0.9062500000000001        0.962963        0.05113291907514451        0        
C2        C        0.9687500000000001        0.962963        0.05113291907514451        0        
C3        C        0.0        0.9814809999999999        0.05113291907514451        0        
C3        C        0.0625        0.9814809999999999        0.05113291907514451        0        
C3        C        0.125        0.9814809999999999        0.05113291907514451        0        
C3        C        0.1875        0.9814809999999999        0.05113291907514451        0        
C3        C        0.25        0.9814809999999999        0.05113291907514451        0        
C3        C        0.3125        0.9814809999999999        0.05113291907514451        0        
C3        C        0.375        0.9814809999999999        0.05113291907514451        0        
C3        C        0.4375        0.9814809999999999        0.05113291907514451        0        
C3        C        0.5        0.9814809999999999        0.05113291907514451        0        
C3        C        0.5625        0.9814809999999999        0.05113291907514451        0        
C3        C        0.625        0.9814809999999999        0.05113291907514451        0        
C3        C        0.6875        0.9814809999999999        0.05113291907514451        0        
C3        C        0.75        0.9814809999999999        0.05113291907514451        0        
C3        C        0.8125        0.9814809999999999        0.05113291907514451        0        
C3        C        0.875        0.9814809999999999        0.05113291907514451        0        
C3        C        0.9375        0.9814809999999999        0.05113291907514451        0        
C4        C        0.03125        0.925925        0.05113291907514451        0        
C4        C        0.09375        0.925925        0.05113291907514451        0        
C4        C        0.15625        0.925925        0.05113291907514451        0        
C4        C        0.21875        0.925925        0.05113291907514451        0        
C4        C        0.28125        0.925925        0.05113291907514451        0        
C4        C        0.34375        0.925925        0.05113291907514451        0        
C4        C        0.40625        0.925925        0.05113291907514451        0        
C4        C        0.46875        0.925925        0.05113291907514451        0        
C4        C        0.53125        0.925925        0.05113291907514451        0        
C4        C        0.59375        0.925925        0.05113291907514451        0        
C4        C        0.65625        0.925925        0.05113291907514451        0        
C4        C        0.71875        0.925925        0.05113291907514451        0        
C4        C        0.78125        0.925925        0.05113291907514451        0        
C4        C        0.84375        0.925925        0.05113291907514451        0        
C4        C        0.9062500000000001        0.925925        0.05113291907514451        0        
C4        C        0.9687500000000001        0.925925        0.05113291907514451        0        
C1        C        0.0        0.018519        0.14795391907514452        0        
C2        C        0.03125        0.074075        0.14795391907514452        0        
C3        C        0.0        0.092592        0.14795391907514452        0        
C4        C        0.03125        0.037037        0.14795391907514452        0        
C1        C        0.0        0.12963        0.14795391907514452        0        
C2        C        0.03125        0.185185        0.14795391907514452        0        
C3        C        0.0        0.203703        0.14795391907514452        0        
C4        C        0.03125        0.148148        0.14795391907514452        0        
C1        C        0.0        0.24074099999999998        0.14795391907514452        0        
C2        C        0.03125        0.296297        0.14795391907514452        0        
C3        C        0.0        0.314815        0.14795391907514452        0        
C4        C        0.03125        0.259259        0.14795391907514452        0        
C1        C        0.0        0.351852        0.14795391907514452        0        
C2        C        0.03125        0.407408        0.14795391907514452        0        
C3        C        0.0        0.42592500000000005        0.14795391907514452        0        
C4        C        0.03125        0.37037        0.14795391907514452        0        
C1        C        0.0        0.46296300000000007        0.14795391907514452        0        
C2        C        0.03125        0.518519        0.14795391907514452        0        
C3        C        0.0        0.537037        0.14795391907514452        0        
C4        C        0.03125        0.481481        0.14795391907514452        0        
C1        C        0.0        0.574075        0.14795391907514452        0        
C2        C        0.03125        0.62963        0.14795391907514452        0        
C3        C        0.0        0.648148        0.14795391907514452        0        
C4        C        0.03125        0.592592        0.14795391907514452        0        
C1        C        0.0625        0.018519        0.14795391907514452        0        
C2        C        0.09375        0.074075        0.14795391907514452        0        
C3        C        0.0625        0.092592        0.14795391907514452        0        
C4        C        0.09375        0.037037        0.14795391907514452        0        
C1        C        0.0625        0.12963        0.14795391907514452        0        
C2        C        0.09375        0.185185        0.14795391907514452        0        
C3        C        0.0625        0.203703        0.14795391907514452        0        
C4        C        0.09375        0.148148        0.14795391907514452        0        
C1        C        0.0625        0.24074099999999998        0.14795391907514452        0        
C2        C        0.09375        0.296297        0.14795391907514452        0        
C3        C        0.0625        0.314815        0.14795391907514452        0        
C4        C        0.09375        0.259259        0.14795391907514452        0        
C1        C        0.0625        0.351852        0.14795391907514452        0        
C2        C        0.09375        0.407408        0.14795391907514452        0        
C3        C        0.0625        0.42592500000000005        0.14795391907514452        0        
C4        C        0.09375        0.37037        0.14795391907514452        0        
C1        C        0.0625        0.46296300000000007        0.14795391907514452        0        
C2        C        0.09375        0.518519        0.14795391907514452        0        
C3        C        0.0625        0.537037        0.14795391907514452        0        
C4        C        0.09375        0.481481        0.14795391907514452        0        
C1        C        0.0625        0.574075        0.14795391907514452        0        
C2        C        0.09375        0.62963        0.14795391907514452        0        
C3        C        0.0625        0.648148        0.14795391907514452        0        
C4        C        0.09375        0.592592        0.14795391907514452        0        
C1        C        0.125        0.018519        0.14795391907514452        0        
C2        C        0.15625        0.074075        0.14795391907514452        0        
C3        C        0.125        0.092592        0.14795391907514452        0        
C4        C        0.15625        0.037037        0.14795391907514452        0        
C1        C        0.125        0.12963        0.14795391907514452        0        
C2        C        0.15625        0.185185        0.14795391907514452        0        
C3        C        0.125        0.203703        0.14795391907514452        0        
C4        C        0.15625        0.148148        0.14795391907514452        0        
C1        C        0.125        0.24074099999999998        0.14795391907514452        0        
C2        C        0.15625        0.296297        0.14795391907514452        0        
C3        C        0.125        0.314815        0.14795391907514452        0        
C4        C        0.15625        0.259259        0.14795391907514452        0        
C1        C        0.125        0.351852        0.14795391907514452        0        
C2        C        0.15625        0.407408        0.14795391907514452        0        
C3        C        0.125        0.42592500000000005        0.14795391907514452        0        
C4        C        0.15625        0.37037        0.14795391907514452        0        
C1        C        0.125        0.46296300000000007        0.14795391907514452        0        
C2        C        0.15625        0.518519        0.14795391907514452        0        
C3        C        0.125        0.537037        0.14795391907514452        0        
C4        C        0.15625        0.481481        0.14795391907514452        0        
C1        C        0.125        0.574075        0.14795391907514452        0        
C2        C        0.15625        0.62963        0.14795391907514452        0        
C3        C        0.125        0.648148        0.14795391907514452        0        
C4        C        0.15625        0.592592        0.14795391907514452        0        
C1        C        0.1875        0.018519        0.14795391907514452        0        
C2        C        0.21875        0.074075        0.14795391907514452        0        
C3        C        0.1875        0.092592        0.14795391907514452        0        
C4        C        0.21875        0.037037        0.14795391907514452        0        
C1        C        0.1875        0.12963        0.14795391907514452        0        
C2        C        0.21875        0.185185        0.14795391907514452        0        
C3        C        0.1875        0.203703        0.14795391907514452        0        
C4        C        0.21875        0.148148        0.14795391907514452        0        
C1        C        0.1875        0.24074099999999998        0.14795391907514452        0        
C2        C        0.21875        0.296297        0.14795391907514452        0        
C3        C        0.1875        0.314815        0.14795391907514452        0        
C4        C        0.21875        0.259259        0.14795391907514452        0        
C1        C        0.1875        0.351852        0.14795391907514452        0        
C2        C        0.21875        0.407408        0.14795391907514452        0        
C3        C        0.1875        0.42592500000000005        0.14795391907514452        0        
C4        C        0.21875        0.37037        0.14795391907514452        0        
C1        C        0.1875        0.46296300000000007        0.14795391907514452        0        
C2        C        0.21875        0.518519        0.14795391907514452        0        
C3        C        0.1875        0.537037        0.14795391907514452        0        
C4        C        0.21875        0.481481        0.14795391907514452        0        
C1        C        0.1875        0.574075        0.14795391907514452        0        
C2        C        0.21875        0.62963        0.14795391907514452        0        
C3        C        0.1875        0.648148        0.14795391907514452        0        
C4        C        0.21875        0.592592        0.14795391907514452        0        
C1        C        0.25        0.018519        0.14795391907514452        0        
C2        C        0.28125        0.074075        0.14795391907514452        0        
C3        C        0.25        0.092592        0.14795391907514452        0        
C4        C        0.28125        0.037037        0.14795391907514452        0        
C1        C        0.25        0.12963        0.14795391907514452        0        
C2        C        0.28125        0.185185        0.14795391907514452        0        
C3        C        0.25        0.203703        0.14795391907514452        0        
C4        C        0.28125        0.148148        0.14795391907514452        0        
C1        C        0.25        0.24074099999999998        0.14795391907514452        0        
C2        C        0.28125        0.296297        0.14795391907514452        0        
C3        C        0.25        0.314815        0.14795391907514452        0        
C4        C        0.28125        0.259259        0.14795391907514452        0        
C1        C        0.25        0.351852        0.14795391907514452        0        
C2        C        0.28125        0.407408        0.14795391907514452        0        
C3        C        0.25        0.42592500000000005        0.14795391907514452        0        
C4        C        0.28125        0.37037        0.14795391907514452        0        
C1        C        0.25        0.46296300000000007        0.14795391907514452        0        
C2        C        0.28125        0.518519        0.14795391907514452        0        
C3        C        0.25        0.537037        0.14795391907514452        0        
C4        C        0.28125        0.481481        0.14795391907514452        0        
C1        C        0.25        0.574075        0.14795391907514452        0        
C2        C        0.28125        0.62963        0.14795391907514452        0        
C3        C        0.25        0.648148        0.14795391907514452        0        
C4        C        0.28125        0.592592        0.14795391907514452        0        
C1        C        0.3125        0.018519        0.14795391907514452        0        
C2        C        0.34375        0.074075        0.14795391907514452        0        
C3        C        0.3125        0.092592        0.14795391907514452        0        
C4        C        0.34375        0.037037        0.14795391907514452        0        
C1        C        0.3125        0.12963        0.14795391907514452        0        
C2        C        0.34375        0.185185        0.14795391907514452        0        
C3        C        0.3125        0.203703        0.14795391907514452        0        
C4        C        0.34375        0.148148        0.14795391907514452        0        
C1        C        0.3125        0.24074099999999998        0.14795391907514452        0        
C2        C        0.34375        0.296297        0.14795391907514452        0        
C3        C        0.3125        0.314815        0.14795391907514452        0        
C4        C        0.34375        0.259259        0.14795391907514452        0        
C1        C        0.3125        0.351852        0.14795391907514452        0        
C2        C        0.34375        0.407408        0.14795391907514452        0        
C3        C        0.3125        0.42592500000000005        0.14795391907514452        0        
C4        C        0.34375        0.37037        0.14795391907514452        0        
C1        C        0.3125        0.46296300000000007        0.14795391907514452        0        
C2        C        0.34375        0.518519        0.14795391907514452        0        
C3        C        0.3125        0.537037        0.14795391907514452        0        
C4        C        0.34375        0.481481        0.14795391907514452        0        
C1        C        0.3125        0.574075        0.14795391907514452        0        
C2        C        0.34375        0.62963        0.14795391907514452        0        
C3        C        0.3125        0.648148        0.14795391907514452        0        
C4        C        0.34375        0.592592        0.14795391907514452        0        
C1        C        0.375        0.018519        0.14795391907514452        0        
C2        C        0.40625        0.074075        0.14795391907514452        0        
C3        C        0.375        0.092592        0.14795391907514452        0        
C4        C        0.40625        0.037037        0.14795391907514452        0        
C1        C        0.375        0.12963        0.14795391907514452        0        
C2        C        0.40625        0.185185        0.14795391907514452        0        
C3        C        0.375        0.203703        0.14795391907514452        0        
C4        C        0.40625        0.148148        0.14795391907514452        0        
C1        C        0.375        0.24074099999999998        0.14795391907514452        0        
C2        C        0.40625        0.296297        0.14795391907514452        0        
C3        C        0.375        0.314815        0.14795391907514452        0        
C4        C        0.40625        0.259259        0.14795391907514452        0        
C1        C        0.375        0.351852        0.14795391907514452        0        
C2        C        0.40625        0.407408        0.14795391907514452        0        
C3        C        0.375        0.42592500000000005        0.14795391907514452        0        
C4        C        0.40625        0.37037        0.14795391907514452        0        
C1        C        0.375        0.46296300000000007        0.14795391907514452        0        
C2        C        0.40625        0.518519        0.14795391907514452        0        
C3        C        0.375        0.537037        0.14795391907514452        0        
C4        C        0.40625        0.481481        0.14795391907514452        0        
C1        C        0.375        0.574075        0.14795391907514452        0        
C2        C        0.40625        0.62963        0.14795391907514452        0        
C3        C        0.375        0.648148        0.14795391907514452        0        
C4        C        0.40625        0.592592        0.14795391907514452        0        
C1        C        0.4375        0.018519        0.14795391907514452        0        
C2        C        0.46875        0.074075        0.14795391907514452        0        
C3        C        0.4375        0.092592        0.14795391907514452        0        
C4        C        0.46875        0.037037        0.14795391907514452        0        
C1        C        0.4375        0.12963        0.14795391907514452        0        
C2        C        0.46875        0.185185        0.14795391907514452        0        
C3        C        0.4375        0.203703        0.14795391907514452        0        
C4        C        0.46875        0.148148        0.14795391907514452        0        
C1        C        0.4375        0.24074099999999998        0.14795391907514452        0        
C2        C        0.46875        0.296297        0.14795391907514452        0        
C3        C        0.4375        0.314815        0.14795391907514452        0        
C4        C        0.46875        0.259259        0.14795391907514452        0        
C1        C        0.4375        0.351852        0.14795391907514452        0        
C2        C        0.46875        0.407408        0.14795391907514452        0        
C3        C        0.4375        0.42592500000000005        0.14795391907514452        0        
C4        C        0.46875        0.37037        0.14795391907514452        0        
C1        C        0.4375        0.46296300000000007        0.14795391907514452        0        
C2        C        0.46875        0.518519        0.14795391907514452        0        
C3        C        0.4375        0.537037        0.14795391907514452        0        
C4        C        0.46875        0.481481        0.14795391907514452        0        
C1        C        0.4375        0.574075        0.14795391907514452        0        
C2        C        0.46875        0.62963        0.14795391907514452        0        
C3        C        0.4375        0.648148        0.14795391907514452        0        
C4        C        0.46875        0.592592        0.14795391907514452        0        
C1        C        0.5        0.018519        0.14795391907514452        0        
C2        C        0.53125        0.074075        0.14795391907514452        0        
C3        C        0.5        0.092592        0.14795391907514452        0        
C4        C        0.53125        0.037037        0.14795391907514452        0        
C1        C        0.5        0.12963        0.14795391907514452        0        
C2        C        0.53125        0.185185        0.14795391907514452        0        
C3        C        0.5        0.203703        0.14795391907514452        0        
C4        C        0.53125        0.148148        0.14795391907514452        0        
C1        C        0.5        0.24074099999999998        0.14795391907514452        0        
C2        C        0.53125        0.296297        0.14795391907514452        0        
C3        C        0.5        0.314815        0.14795391907514452        0        
C4        C        0.53125        0.259259        0.14795391907514452        0        
C1        C        0.5        0.351852        0.14795391907514452        0        
C2        C        0.53125        0.407408        0.14795391907514452        0        
C3        C        0.5        0.42592500000000005        0.14795391907514452        0        
C4        C        0.53125        0.37037        0.14795391907514452        0        
C1        C        0.5        0.46296300000000007        0.14795391907514452        0        
C2        C        0.53125        0.518519        0.14795391907514452        0        
C3        C        0.5        0.537037        0.14795391907514452        0        
C4        C        0.53125        0.481481        0.14795391907514452        0        
C1        C        0.5        0.574075        0.14795391907514452        0        
C2        C        0.53125        0.62963        0.14795391907514452        0        
C3        C        0.5        0.648148        0.14795391907514452        0        
C4        C        0.53125        0.592592        0.14795391907514452        0        
C1        C        0.5625        0.018519        0.14795391907514452        0        
C2        C        0.59375        0.074075        0.14795391907514452        0        
C3        C        0.5625        0.092592        0.14795391907514452        0        
C4        C        0.59375        0.037037        0.14795391907514452        0        
C1        C        0.5625        0.12963        0.14795391907514452        0        
C2        C        0.59375        0.185185        0.14795391907514452        0        
C3        C        0.5625        0.203703        0.14795391907514452        0        
C4        C        0.59375        0.148148        0.14795391907514452        0        
C1        C        0.5625        0.24074099999999998        0.14795391907514452        0        
C2        C        0.59375        0.296297        0.14795391907514452        0        
C3        C        0.5625        0.314815        0.14795391907514452        0        
C4        C        0.59375        0.259259        0.14795391907514452        0        
C1        C        0.5625        0.351852        0.14795391907514452        0        
C2        C        0.59375        0.407408        0.14795391907514452        0        
C3        C        0.5625        0.42592500000000005        0.14795391907514452        0        
C4        C        0.59375        0.37037        0.14795391907514452        0        
C1        C        0.5625        0.46296300000000007        0.14795391907514452        0        
C2        C        0.59375        0.518519        0.14795391907514452        0        
C3        C        0.5625        0.537037        0.14795391907514452        0        
C4        C        0.59375        0.481481        0.14795391907514452        0        
C1        C        0.5625        0.574075        0.14795391907514452        0        
C2        C        0.59375        0.62963        0.14795391907514452        0        
C3        C        0.5625        0.648148        0.14795391907514452        0        
C4        C        0.59375        0.592592        0.14795391907514452        0        
C1        C        0.625        0.018519        0.14795391907514452        0        
C2        C        0.65625        0.074075        0.14795391907514452        0        
C3        C        0.625        0.092592        0.14795391907514452        0        
C4        C        0.65625        0.037037        0.14795391907514452        0        
C1        C        0.625        0.12963        0.14795391907514452        0        
C2        C        0.65625        0.185185        0.14795391907514452        0        
C3        C        0.625        0.203703        0.14795391907514452        0        
C4        C        0.65625        0.148148        0.14795391907514452        0        
C1        C        0.625        0.24074099999999998        0.14795391907514452        0        
C2        C        0.65625        0.296297        0.14795391907514452        0        
C3        C        0.625        0.314815        0.14795391907514452        0        
C4        C        0.65625        0.259259        0.14795391907514452        0        
C1        C        0.625        0.351852        0.14795391907514452        0        
C2        C        0.65625        0.407408        0.14795391907514452        0        
C3        C        0.625        0.42592500000000005        0.14795391907514452        0        
C4        C        0.65625        0.37037        0.14795391907514452        0        
C1        C        0.625        0.46296300000000007        0.14795391907514452        0        
C2        C        0.65625        0.518519        0.14795391907514452        0        
C3        C        0.625        0.537037        0.14795391907514452        0        
C4        C        0.65625        0.481481        0.14795391907514452        0        
C1        C        0.625        0.574075        0.14795391907514452        0        
C2        C        0.65625        0.62963        0.14795391907514452        0        
C3        C        0.625        0.648148        0.14795391907514452        0        
C4        C        0.65625        0.592592        0.14795391907514452        0        
C1        C        0.6875        0.018519        0.14795391907514452        0        
C2        C        0.71875        0.074075        0.14795391907514452        0        
C3        C        0.6875        0.092592        0.14795391907514452        0        
C4        C        0.71875        0.037037        0.14795391907514452        0        
C1        C        0.6875        0.12963        0.14795391907514452        0        
C2        C        0.71875        0.185185        0.14795391907514452        0        
C3        C        0.6875        0.203703        0.14795391907514452        0        
C4        C        0.71875        0.148148        0.14795391907514452        0        
C1        C        0.6875        0.24074099999999998        0.14795391907514452        0        
C2        C        0.71875        0.296297        0.14795391907514452        0        
C3        C        0.6875        0.314815        0.14795391907514452        0        
C4        C        0.71875        0.259259        0.14795391907514452        0        
C1        C        0.6875        0.351852        0.14795391907514452        0        
C2        C        0.71875        0.407408        0.14795391907514452        0        
C3        C        0.6875        0.42592500000000005        0.14795391907514452        0        
C4        C        0.71875        0.37037        0.14795391907514452        0        
C1        C        0.6875        0.46296300000000007        0.14795391907514452        0        
C2        C        0.71875        0.518519        0.14795391907514452        0        
C3        C        0.6875        0.537037        0.14795391907514452        0        
C4        C        0.71875        0.481481        0.14795391907514452        0        
C1        C        0.6875        0.574075        0.14795391907514452        0        
C2        C        0.71875        0.62963        0.14795391907514452        0        
C3        C        0.6875        0.648148        0.14795391907514452        0        
C4        C        0.71875        0.592592        0.14795391907514452        0        
C1        C        0.75        0.018519        0.14795391907514452        0        
C2        C        0.78125        0.074075        0.14795391907514452        0        
C3        C        0.75        0.092592        0.14795391907514452        0        
C4        C        0.78125        0.037037        0.14795391907514452        0        
C1        C        0.75        0.12963        0.14795391907514452        0        
C2        C        0.78125        0.185185        0.14795391907514452        0        
C3        C        0.75        0.203703        0.14795391907514452        0        
C4        C        0.78125        0.148148        0.14795391907514452        0        
C1        C        0.75        0.24074099999999998        0.14795391907514452        0        
C2        C        0.78125        0.296297        0.14795391907514452        0        
C3        C        0.75        0.314815        0.14795391907514452        0        
C4        C        0.78125        0.259259        0.14795391907514452        0        
C1        C        0.75        0.351852        0.14795391907514452        0        
C2        C        0.78125        0.407408        0.14795391907514452        0        
C3        C        0.75        0.42592500000000005        0.14795391907514452        0        
C4        C        0.78125        0.37037        0.14795391907514452        0        
C1        C        0.75        0.46296300000000007        0.14795391907514452        0        
C2        C        0.78125        0.518519        0.14795391907514452        0        
C3        C        0.75        0.537037        0.14795391907514452        0        
C4        C        0.78125        0.481481        0.14795391907514452        0        
C1        C        0.75        0.574075        0.14795391907514452        0        
C2        C        0.78125        0.62963        0.14795391907514452        0        
C3        C        0.75        0.648148        0.14795391907514452        0        
C4        C        0.78125        0.592592        0.14795391907514452        0        
C1        C        0.8125        0.018519        0.14795391907514452        0        
C2        C        0.84375        0.074075        0.14795391907514452        0        
C3        C        0.8125        0.092592        0.14795391907514452        0        
C4        C        0.84375        0.037037        0.14795391907514452        0        
C1        C        0.8125        0.12963        0.14795391907514452        0        
C2        C        0.84375        0.185185        0.14795391907514452        0        
C3        C        0.8125        0.203703        0.14795391907514452        0        
C4        C        0.84375        0.148148        0.14795391907514452        0        
C1        C        0.8125        0.24074099999999998        0.14795391907514452        0        
C2        C        0.84375        0.296297        0.14795391907514452        0        
C3        C        0.8125        0.314815        0.14795391907514452        0        
C4        C        0.84375        0.259259        0.14795391907514452        0        
C1        C        0.8125        0.351852        0.14795391907514452        0        
C2        C        0.84375        0.407408        0.14795391907514452        0        
C3        C        0.8125        0.42592500000000005        0.14795391907514452        0        
C4        C        0.84375        0.37037        0.14795391907514452        0        
C1        C        0.8125        0.46296300000000007        0.14795391907514452        0        
C2        C        0.84375        0.518519        0.14795391907514452        0        
C3        C        0.8125        0.537037        0.14795391907514452        0        
C4        C        0.84375        0.481481        0.14795391907514452        0        
C1        C        0.8125        0.574075        0.14795391907514452        0        
C2        C        0.84375        0.62963        0.14795391907514452        0        
C3        C        0.8125        0.648148        0.14795391907514452        0        
C4        C        0.84375        0.592592        0.14795391907514452        0        
C1        C        0.875        0.018519        0.14795391907514452        0        
C2        C        0.9062500000000001        0.074075        0.14795391907514452        0        
C3        C        0.875        0.092592        0.14795391907514452        0        
C4        C        0.9062500000000001        0.037037        0.14795391907514452        0        
C1        C        0.875        0.12963        0.14795391907514452        0        
C2        C        0.9062500000000001        0.185185        0.14795391907514452        0        
C3        C        0.875        0.203703        0.14795391907514452        0        
C4        C        0.9062500000000001        0.148148        0.14795391907514452        0        
C1        C        0.875        0.24074099999999998        0.14795391907514452        0        
C2        C        0.9062500000000001        0.296297        0.14795391907514452        0        
C3        C        0.875        0.314815        0.14795391907514452        0        
C4        C        0.9062500000000001        0.259259        0.14795391907514452        0        
C1        C        0.875        0.351852        0.14795391907514452        0        
C2        C        0.9062500000000001        0.407408        0.14795391907514452        0        
C3        C        0.875        0.42592500000000005        0.14795391907514452        0        
C4        C        0.9062500000000001        0.37037        0.14795391907514452        0        
C1        C        0.875        0.46296300000000007        0.14795391907514452        0        
C2        C        0.9062500000000001        0.518519        0.14795391907514452        0        
C3        C        0.875        0.537037        0.14795391907514452        0        
C4        C        0.9062500000000001        0.481481        0.14795391907514452        0        
C1        C        0.875        0.574075        0.14795391907514452        0        
C2        C        0.9062500000000001        0.62963        0.14795391907514452        0        
C3        C        0.875        0.648148        0.14795391907514452        0        
C4        C        0.9062500000000001        0.592592        0.14795391907514452        0        
C1        C        0.9375        0.018519        0.14795391907514452        0        
C2        C        0.9687500000000001        0.074075        0.14795391907514452        0        
C3        C        0.9375        0.092592        0.14795391907514452        0        
C4        C        0.9687500000000001        0.037037        0.14795391907514452        0        
C1        C        0.9375        0.12963        0.14795391907514452        0        
C2        C        0.9687500000000001        0.185185        0.14795391907514452        0        
C3        C        0.9375        0.203703        0.14795391907514452        0        
C4        C        0.9687500000000001        0.148148        0.14795391907514452        0        
C1        C        0.9375        0.24074099999999998        0.14795391907514452        0        
C2        C        0.9687500000000001        0.296297        0.14795391907514452        0        
C3        C        0.9375        0.314815        0.14795391907514452        0        
C4        C        0.9687500000000001        0.259259        0.14795391907514452        0        
C1        C        0.9375        0.351852        0.14795391907514452        0        
C2        C        0.9687500000000001        0.407408        0.14795391907514452        0        
C3        C        0.9375        0.42592500000000005        0.14795391907514452        0        
C4        C        0.9687500000000001        0.37037        0.14795391907514452        0        
C1        C        0.9375        0.46296300000000007        0.14795391907514452        0        
C2        C        0.9687500000000001        0.518519        0.14795391907514452        0        
C3        C        0.9375        0.537037        0.14795391907514452        0        
C4        C        0.9687500000000001        0.481481        0.14795391907514452        0        
C1        C        0.9375        0.574075        0.14795391907514452        0        
C2        C        0.9687500000000001        0.62963        0.14795391907514452        0        
C3        C        0.9375        0.648148        0.14795391907514452        0        
C4        C        0.9687500000000001        0.592592        0.14795391907514452        0        
C1        C        0.0        0.685186        0.14795391907514452        0        
C1        C        0.0625        0.685186        0.14795391907514452        0        
C1        C        0.125        0.685186        0.14795391907514452        0        
C1        C        0.1875        0.685186        0.14795391907514452        0        
C1        C        0.25        0.685186        0.14795391907514452        0        
C1        C        0.3125        0.685186        0.14795391907514452        0        
C1        C        0.375        0.685186        0.14795391907514452        0        
C1        C        0.4375        0.685186        0.14795391907514452        0        
C1        C        0.5        0.685186        0.14795391907514452        0        
C1        C        0.5625        0.685186        0.14795391907514452        0        
C1        C        0.625        0.685186        0.14795391907514452        0        
C1        C        0.6875        0.685186        0.14795391907514452        0        
C1        C        0.75        0.685186        0.14795391907514452        0        
C1        C        0.8125        0.685186        0.14795391907514452        0        
C1        C        0.875        0.685186        0.14795391907514452        0        
C1        C        0.9375        0.685186        0.14795391907514452        0        
C2        C        0.03125        0.740741        0.14795391907514452        0        
C2        C        0.09375        0.740741        0.14795391907514452        0        
C2        C        0.15625        0.740741        0.14795391907514452        0        
C2        C        0.21875        0.740741        0.14795391907514452        0        
C2        C        0.28125        0.740741        0.14795391907514452        0        
C2        C        0.34375        0.740741        0.14795391907514452        0        
C2        C        0.40625        0.740741        0.14795391907514452        0        
C2        C        0.46875        0.740741        0.14795391907514452        0        
C2        C        0.53125        0.740741        0.14795391907514452        0        
C2        C        0.59375        0.740741        0.14795391907514452        0        
C2        C        0.65625        0.740741        0.14795391907514452        0        
C2        C        0.71875        0.740741        0.14795391907514452        0        
C2        C        0.78125        0.740741        0.14795391907514452        0        
C2        C        0.84375        0.740741        0.14795391907514452        0        
C2        C        0.9062500000000001        0.740741        0.14795391907514452        0        
C2        C        0.9687500000000001        0.740741        0.14795391907514452        0        
C3        C        0.0        0.759259        0.14795391907514452        0        
C3        C        0.0625        0.759259        0.14795391907514452        0        
C3        C        0.125        0.759259        0.14795391907514452        0        
C3        C        0.1875        0.759259        0.14795391907514452        0        
C3        C        0.25        0.759259        0.14795391907514452        0        
C3        C        0.3125        0.759259        0.14795391907514452        0        
C3        C        0.375        0.759259        0.14795391907514452        0        
C3        C        0.4375        0.759259        0.14795391907514452        0        
C3        C        0.5        0.759259        0.14795391907514452        0        
C3        C        0.5625        0.759259        0.14795391907514452        0        
C3        C        0.625        0.759259        0.14795391907514452        0        
C3        C        0.6875        0.759259        0.14795391907514452        0        
C3        C        0.75        0.759259        0.14795391907514452        0        
C3        C        0.8125        0.759259        0.14795391907514452        0        
C3        C        0.875        0.759259        0.14795391907514452        0        
C3        C        0.9375        0.759259        0.14795391907514452        0        
C4        C        0.03125        0.703703        0.14795391907514452        0        
C4        C        0.09375        0.703703        0.14795391907514452        0        
C4        C        0.15625        0.703703        0.14795391907514452        0        
C4        C        0.21875        0.703703        0.14795391907514452        0        
C4        C        0.28125        0.703703        0.14795391907514452        0        
C4        C        0.34375        0.703703        0.14795391907514452        0        
C4        C        0.40625        0.703703        0.14795391907514452        0        
C4        C        0.46875        0.703703        0.14795391907514452        0        
C4        C        0.53125        0.703703        0.14795391907514452        0        
C4        C        0.59375        0.703703        0.14795391907514452        0        
C4        C        0.65625        0.703703        0.14795391907514452        0        
C4        C        0.71875        0.703703        0.14795391907514452        0        
C4        C        0.78125        0.703703        0.14795391907514452        0        
C4        C        0.84375        0.703703        0.14795391907514452        0        
C4        C        0.9062500000000001        0.703703        0.14795391907514452        0        
C4        C        0.9687500000000001        0.703703        0.14795391907514452        0        
C1        C        0.0        0.796297        0.14795391907514452        0        
C1        C        0.0625        0.796297        0.14795391907514452        0        
C1        C        0.125        0.796297        0.14795391907514452        0        
C1        C        0.1875        0.796297        0.14795391907514452        0        
C1        C        0.25        0.796297        0.14795391907514452        0        
C1        C        0.3125        0.796297        0.14795391907514452        0        
C1        C        0.375        0.796297        0.14795391907514452        0        
C1        C        0.4375        0.796297        0.14795391907514452        0        
C1        C        0.5        0.796297        0.14795391907514452        0        
C1        C        0.5625        0.796297        0.14795391907514452        0        
C1        C        0.625        0.796297        0.14795391907514452        0        
C1        C        0.6875        0.796297        0.14795391907514452        0        
C1        C        0.75        0.796297        0.14795391907514452        0        
C1        C        0.8125        0.796297        0.14795391907514452        0        
C1        C        0.875        0.796297        0.14795391907514452        0        
C1        C        0.9375        0.796297        0.14795391907514452        0        
C2        C        0.03125        0.851852        0.14795391907514452        0        
C2        C        0.09375        0.851852        0.14795391907514452        0        
C2        C        0.15625        0.851852        0.14795391907514452        0        
C2        C        0.21875        0.851852        0.14795391907514452        0        
C2        C        0.28125        0.851852        0.14795391907514452        0        
C2        C        0.34375        0.851852        0.14795391907514452        0        
C2        C        0.40625        0.851852        0.14795391907514452        0        
C2        C        0.46875        0.851852        0.14795391907514452        0        
C2        C        0.53125        0.851852        0.14795391907514452        0        
C2        C        0.59375        0.851852        0.14795391907514452        0        
C2        C        0.65625        0.851852        0.14795391907514452        0        
C2        C        0.71875        0.851852        0.14795391907514452        0        
C2        C        0.78125        0.851852        0.14795391907514452        0        
C2        C        0.84375        0.851852        0.14795391907514452        0        
C2        C        0.9062500000000001        0.851852        0.14795391907514452        0        
C2        C        0.9687500000000001        0.851852        0.14795391907514452        0        
C3        C        0.0        0.87037        0.14795391907514452        0        
C3        C        0.0625        0.87037        0.14795391907514452        0        
C3        C        0.125        0.87037        0.14795391907514452        0        
C3        C        0.1875        0.87037        0.14795391907514452        0        
C3        C        0.25        0.87037        0.14795391907514452        0        
C3        C        0.3125        0.87037        0.14795391907514452        0        
C3        C        0.375        0.87037        0.14795391907514452        0        
C3        C        0.4375        0.87037        0.14795391907514452        0        
C3        C        0.5        0.87037        0.14795391907514452        0        
C3        C        0.5625        0.87037        0.14795391907514452        0        
C3        C        0.625        0.87037        0.14795391907514452        0        
C3        C        0.6875        0.87037        0.14795391907514452        0        
C3        C        0.75        0.87037        0.14795391907514452        0        
C3        C        0.8125        0.87037        0.14795391907514452        0        
C3        C        0.875        0.87037        0.14795391907514452        0        
C3        C        0.9375        0.87037        0.14795391907514452        0        
C4        C        0.03125        0.814814        0.14795391907514452        0        
C4        C        0.09375        0.814814        0.14795391907514452        0        
C4        C        0.15625        0.814814        0.14795391907514452        0        
C4        C        0.21875        0.814814        0.14795391907514452        0        
C4        C        0.28125        0.814814        0.14795391907514452        0        
C4        C        0.34375        0.814814        0.14795391907514452        0        
C4        C        0.40625        0.814814        0.14795391907514452        0        
C4        C        0.46875        0.814814        0.14795391907514452        0        
C4        C        0.53125        0.814814        0.14795391907514452        0        
C4        C        0.59375        0.814814        0.14795391907514452        0        
C4        C        0.65625        0.814814        0.14795391907514452        0        
C4        C        0.71875        0.814814        0.14795391907514452        0        
C4        C        0.78125        0.814814        0.14795391907514452        0        
C4        C        0.84375        0.814814        0.14795391907514452        0        
C4        C        0.9062500000000001        0.814814        0.14795391907514452        0        
C4        C        0.9687500000000001        0.814814        0.14795391907514452        0        
C1        C        0.0        0.907408        0.14795391907514452        0        
C1        C        0.0625        0.907408        0.14795391907514452        0        
C1        C        0.125        0.907408        0.14795391907514452        0        
C1        C        0.1875        0.907408        0.14795391907514452        0        
C1        C        0.25        0.907408        0.14795391907514452        0        
C1        C        0.3125        0.907408        0.14795391907514452        0        
C1        C        0.375        0.907408        0.14795391907514452        0        
C1        C        0.4375        0.907408        0.14795391907514452        0        
C1        C        0.5        0.907408        0.14795391907514452        0        
C1        C        0.5625        0.907408        0.14795391907514452        0        
C1        C        0.625        0.907408        0.14795391907514452        0        
C1        C        0.6875        0.907408        0.14795391907514452        0        
C1        C        0.75        0.907408        0.14795391907514452        0        
C1        C        0.8125        0.907408        0.14795391907514452        0        
C1        C        0.875        0.907408        0.14795391907514452        0        
C1        C        0.9375        0.907408        0.14795391907514452        0        
C2        C        0.03125        0.962963        0.14795391907514452        0        
C2        C        0.09375        0.962963        0.14795391907514452        0        
C2        C        0.15625        0.962963        0.14795391907514452        0        
C2        C        0.21875        0.962963        0.14795391907514452        0        
C2        C        0.28125        0.962963        0.14795391907514452        0        
C2        C        0.34375        0.962963        0.14795391907514452        0        
C2        C        0.40625        0.962963        0.14795391907514452        0        
C2        C        0.46875        0.962963        0.14795391907514452        0        
C2        C        0.53125        0.962963        0.14795391907514452        0        
C2        C        0.59375        0.962963        0.14795391907514452        0        
C2        C        0.65625        0.962963        0.14795391907514452        0        
C2        C        0.71875        0.962963        0.14795391907514452        0        
C2        C        0.78125        0.962963        0.14795391907514452        0        
C2        C        0.84375        0.962963        0.14795391907514452        0        
C2        C        0.9062500000000001        0.962963        0.14795391907514452        0        
C2        C        0.9687500000000001        0.962963        0.14795391907514452        0        
C3        C        0.0        0.9814809999999999        0.14795391907514452        0        
C3        C        0.0625        0.9814809999999999        0.14795391907514452        0        
C3        C        0.125        0.9814809999999999        0.14795391907514452        0        
C3        C        0.1875        0.9814809999999999        0.14795391907514452        0        
C3        C        0.25        0.9814809999999999        0.14795391907514452        0        
C3        C        0.3125        0.9814809999999999        0.14795391907514452        0        
C3        C        0.375        0.9814809999999999        0.14795391907514452        0        
C3        C        0.4375        0.9814809999999999        0.14795391907514452        0        
C3        C        0.5        0.9814809999999999        0.14795391907514452        0        
C3        C        0.5625        0.9814809999999999        0.14795391907514452        0        
C3        C        0.625        0.9814809999999999        0.14795391907514452        0        
C3        C        0.6875        0.9814809999999999        0.14795391907514452        0        
C3        C        0.75        0.9814809999999999        0.14795391907514452        0        
C3        C        0.8125        0.9814809999999999        0.14795391907514452        0        
C3        C        0.875        0.9814809999999999        0.14795391907514452        0        
C3        C        0.9375        0.9814809999999999        0.14795391907514452        0        
C4        C        0.03125        0.925925        0.14795391907514452        0        
C4        C        0.09375        0.925925        0.14795391907514452        0        
C4        C        0.15625        0.925925        0.14795391907514452        0        
C4        C        0.21875        0.925925        0.14795391907514452        0        
C4        C        0.28125        0.925925        0.14795391907514452        0        
C4        C        0.34375        0.925925        0.14795391907514452        0        
C4        C        0.40625        0.925925        0.14795391907514452        0        
C4        C        0.46875        0.925925        0.14795391907514452        0        
C4        C        0.53125        0.925925        0.14795391907514452        0        
C4        C        0.59375        0.925925        0.14795391907514452        0        
C4        C        0.65625        0.925925        0.14795391907514452        0        
C4        C        0.71875        0.925925        0.14795391907514452        0        
C4        C        0.78125        0.925925        0.14795391907514452        0        
C4        C        0.84375        0.925925        0.14795391907514452        0        
C4        C        0.9062500000000001        0.925925        0.14795391907514452        0        
C4        C        0.9687500000000001        0.925925        0.14795391907514452        0        
C_FG        C        0.0        0.018519        0.24477491907514454        0.2        
C2        C        0.03125        0.074075        0.24477491907514454        0        
C3        C        0.0        0.092592        0.24477491907514454        0        
C4        C        0.03125        0.037037        0.24477491907514454        0        
C1        C        0.0        0.12963        0.24477491907514454        0        
C2        C        0.03125        0.185185        0.24477491907514454        0        
C3        C        0.0        0.203703        0.24477491907514454        0        
C4        C        0.03125        0.148148        0.24477491907514454        0        
C1        C        0.0        0.24074099999999998        0.24477491907514454        0        
C2        C        0.03125        0.296297        0.24477491907514454        0        
C_FG        C        0.0        0.314815        0.24477491907514454        0.2        
C4        C        0.03125        0.259259        0.24477491907514454        0        
C1        C        0.0        0.351852        0.24477491907514454        0        
C2        C        0.03125        0.407408        0.24477491907514454        0        
C3        C        0.0        0.42592500000000005        0.24477491907514454        0        
C4        C        0.03125        0.37037        0.24477491907514454        0        
C1        C        0.0        0.46296300000000007        0.24477491907514454        0        
C2        C        0.03125        0.518519        0.24477491907514454        0        
C3        C        0.0        0.537037        0.24477491907514454        0        
C4        C        0.03125        0.481481        0.24477491907514454        0        
C_FG        C        0.0        0.574075        0.24477491907514454        0.2        
C2        C        0.03125        0.62963        0.24477491907514454        0        
C3        C        0.0        0.648148        0.24477491907514454        0        
C4        C        0.03125        0.592592        0.24477491907514454        0        
C1        C        0.0625        0.018519        0.24477491907514454        0        
C2        C        0.09375        0.074075        0.24477491907514454        0        
C3        C        0.0625        0.092592        0.24477491907514454        0        
C4        C        0.09375        0.037037        0.24477491907514454        0        
C1        C        0.0625        0.12963        0.24477491907514454        0        
C2        C        0.09375        0.185185        0.24477491907514454        0        
C3        C        0.0625        0.203703        0.24477491907514454        0        
C4        C        0.09375        0.148148        0.24477491907514454        0        
C1        C        0.0625        0.24074099999999998        0.24477491907514454        0        
C2        C        0.09375        0.296297        0.24477491907514454        0        
C3        C        0.0625        0.314815        0.24477491907514454        0        
C4        C        0.09375        0.259259        0.24477491907514454        0        
C1        C        0.0625        0.351852        0.24477491907514454        0        
C2        C        0.09375        0.407408        0.24477491907514454        0        
C3        C        0.0625        0.42592500000000005        0.24477491907514454        0        
C4        C        0.09375        0.37037        0.24477491907514454        0        
C1        C        0.0625        0.46296300000000007        0.24477491907514454        0        
C2        C        0.09375        0.518519        0.24477491907514454        0        
C3        C        0.0625        0.537037        0.24477491907514454        0        
C4        C        0.09375        0.481481        0.24477491907514454        0        
C1        C        0.0625        0.574075        0.24477491907514454        0        
C2        C        0.09375        0.62963        0.24477491907514454        0        
C3        C        0.0625        0.648148        0.24477491907514454        0        
C4        C        0.09375        0.592592        0.24477491907514454        0        
C1        C        0.125        0.018519        0.24477491907514454        0        
C2        C        0.15625        0.074075        0.24477491907514454        0        
C3        C        0.125        0.092592        0.24477491907514454        0        
C4        C        0.15625        0.037037        0.24477491907514454        0        
C1        C        0.125        0.12963        0.24477491907514454        0        
C2        C        0.15625        0.185185        0.24477491907514454        0        
C3        C        0.125        0.203703        0.24477491907514454        0        
C4        C        0.15625        0.148148        0.24477491907514454        0        
C1        C        0.125        0.24074099999999998        0.24477491907514454        0        
C2        C        0.15625        0.296297        0.24477491907514454        0        
C3        C        0.125        0.314815        0.24477491907514454        0        
C4        C        0.15625        0.259259        0.24477491907514454        0        
C1        C        0.125        0.351852        0.24477491907514454        0        
C2        C        0.15625        0.407408        0.24477491907514454        0        
C3        C        0.125        0.42592500000000005        0.24477491907514454        0        
C4        C        0.15625        0.37037        0.24477491907514454        0        
C1        C        0.125        0.46296300000000007        0.24477491907514454        0        
C2        C        0.15625        0.518519        0.24477491907514454        0        
C3        C        0.125        0.537037        0.24477491907514454        0        
C4        C        0.15625        0.481481        0.24477491907514454        0        
C1        C        0.125        0.574075        0.24477491907514454        0        
C2        C        0.15625        0.62963        0.24477491907514454        0        
C3        C        0.125        0.648148        0.24477491907514454        0        
C4        C        0.15625        0.592592        0.24477491907514454        0        
C1        C        0.1875        0.018519        0.24477491907514454        0        
C2        C        0.21875        0.074075        0.24477491907514454        0        
C3        C        0.1875        0.092592        0.24477491907514454        0        
C4        C        0.21875        0.037037        0.24477491907514454        0        
C1        C        0.1875        0.12963        0.24477491907514454        0        
C2        C        0.21875        0.185185        0.24477491907514454        0        
C3        C        0.1875        0.203703        0.24477491907514454        0        
C4        C        0.21875        0.148148        0.24477491907514454        0        
C1        C        0.1875        0.24074099999999998        0.24477491907514454        0        
C2        C        0.21875        0.296297        0.24477491907514454        0        
C3        C        0.1875        0.314815        0.24477491907514454        0        
C4        C        0.21875        0.259259        0.24477491907514454        0        
C1        C        0.1875        0.351852        0.24477491907514454        0        
C2        C        0.21875        0.407408        0.24477491907514454        0        
C3        C        0.1875        0.42592500000000005        0.24477491907514454        0        
C4        C        0.21875        0.37037        0.24477491907514454        0        
C1        C        0.1875        0.46296300000000007        0.24477491907514454        0        
C2        C        0.21875        0.518519        0.24477491907514454        0        
C3        C        0.1875        0.537037        0.24477491907514454        0        
C4        C        0.21875        0.481481        0.24477491907514454        0        
C1        C        0.1875        0.574075        0.24477491907514454        0        
C2        C        0.21875        0.62963        0.24477491907514454        0        
C3        C        0.1875        0.648148        0.24477491907514454        0        
C4        C        0.21875        0.592592        0.24477491907514454        0        
C_FG        C        0.25        0.018519        0.24477491907514454        0.2        
C2        C        0.28125        0.074075        0.24477491907514454        0        
C3        C        0.25        0.092592        0.24477491907514454        0        
C4        C        0.28125        0.037037        0.24477491907514454        0        
C1        C        0.25        0.12963        0.24477491907514454        0        
C2        C        0.28125        0.185185        0.24477491907514454        0        
C3        C        0.25        0.203703        0.24477491907514454        0        
C4        C        0.28125        0.148148        0.24477491907514454        0        
C1        C        0.25        0.24074099999999998        0.24477491907514454        0        
C2        C        0.28125        0.296297        0.24477491907514454        0        
C_FG        C        0.25        0.314815        0.24477491907514454        0.2        
C4        C        0.28125        0.259259        0.24477491907514454        0        
C1        C        0.25        0.351852        0.24477491907514454        0        
C2        C        0.28125        0.407408        0.24477491907514454        0        
C3        C        0.25        0.42592500000000005        0.24477491907514454        0        
C4        C        0.28125        0.37037        0.24477491907514454        0        
C1        C        0.25        0.46296300000000007        0.24477491907514454        0        
C2        C        0.28125        0.518519        0.24477491907514454        0        
C3        C        0.25        0.537037        0.24477491907514454        0        
C4        C        0.28125        0.481481        0.24477491907514454        0        
C_FG        C        0.25        0.574075        0.24477491907514454        0.2        
C2        C        0.28125        0.62963        0.24477491907514454        0        
C3        C        0.25        0.648148        0.24477491907514454        0        
C4        C        0.28125        0.592592        0.24477491907514454        0        
C1        C        0.3125        0.018519        0.24477491907514454        0        
C2        C        0.34375        0.074075        0.24477491907514454        0        
C3        C        0.3125        0.092592        0.24477491907514454        0        
C4        C        0.34375        0.037037        0.24477491907514454        0        
C1        C        0.3125        0.12963        0.24477491907514454        0        
C2        C        0.34375        0.185185        0.24477491907514454        0        
C3        C        0.3125        0.203703        0.24477491907514454        0        
C4        C        0.34375        0.148148        0.24477491907514454        0        
C1        C        0.3125        0.24074099999999998        0.24477491907514454        0        
C2        C        0.34375        0.296297        0.24477491907514454        0        
C3        C        0.3125        0.314815        0.24477491907514454        0        
C4        C        0.34375        0.259259        0.24477491907514454        0        
C1        C        0.3125        0.351852        0.24477491907514454        0        
C2        C        0.34375        0.407408        0.24477491907514454        0        
C3        C        0.3125        0.42592500000000005        0.24477491907514454        0        
C4        C        0.34375        0.37037        0.24477491907514454        0        
C1        C        0.3125        0.46296300000000007        0.24477491907514454        0        
C2        C        0.34375        0.518519        0.24477491907514454        0        
C3        C        0.3125        0.537037        0.24477491907514454        0        
C4        C        0.34375        0.481481        0.24477491907514454        0        
C1        C        0.3125        0.574075        0.24477491907514454        0        
C2        C        0.34375        0.62963        0.24477491907514454        0        
C3        C        0.3125        0.648148        0.24477491907514454        0        
C4        C        0.34375        0.592592        0.24477491907514454        0        
C1        C        0.375        0.018519        0.24477491907514454        0        
C2        C        0.40625        0.074075        0.24477491907514454        0        
C3        C        0.375        0.092592        0.24477491907514454        0        
C4        C        0.40625        0.037037        0.24477491907514454        0        
C1        C        0.375        0.12963        0.24477491907514454        0        
C2        C        0.40625        0.185185        0.24477491907514454        0        
C3        C        0.375        0.203703        0.24477491907514454        0        
C4        C        0.40625        0.148148        0.24477491907514454        0        
C1        C        0.375        0.24074099999999998        0.24477491907514454        0        
C2        C        0.40625        0.296297        0.24477491907514454        0        
C3        C        0.375        0.314815        0.24477491907514454        0        
C4        C        0.40625        0.259259        0.24477491907514454        0        
C1        C        0.375        0.351852        0.24477491907514454        0        
C2        C        0.40625        0.407408        0.24477491907514454        0        
C3        C        0.375        0.42592500000000005        0.24477491907514454        0        
C4        C        0.40625        0.37037        0.24477491907514454        0        
C1        C        0.375        0.46296300000000007        0.24477491907514454        0        
C2        C        0.40625        0.518519        0.24477491907514454        0        
C3        C        0.375        0.537037        0.24477491907514454        0        
C4        C        0.40625        0.481481        0.24477491907514454        0        
C1        C        0.375        0.574075        0.24477491907514454        0        
C2        C        0.40625        0.62963        0.24477491907514454        0        
C3        C        0.375        0.648148        0.24477491907514454        0        
C4        C        0.40625        0.592592        0.24477491907514454        0        
C1        C        0.4375        0.018519        0.24477491907514454        0        
C2        C        0.46875        0.074075        0.24477491907514454        0        
C3        C        0.4375        0.092592        0.24477491907514454        0        
C4        C        0.46875        0.037037        0.24477491907514454        0        
C1        C        0.4375        0.12963        0.24477491907514454        0        
C2        C        0.46875        0.185185        0.24477491907514454        0        
C3        C        0.4375        0.203703        0.24477491907514454        0        
C4        C        0.46875        0.148148        0.24477491907514454        0        
C1        C        0.4375        0.24074099999999998        0.24477491907514454        0        
C2        C        0.46875        0.296297        0.24477491907514454        0        
C3        C        0.4375        0.314815        0.24477491907514454        0        
C4        C        0.46875        0.259259        0.24477491907514454        0        
C1        C        0.4375        0.351852        0.24477491907514454        0        
C2        C        0.46875        0.407408        0.24477491907514454        0        
C3        C        0.4375        0.42592500000000005        0.24477491907514454        0        
C4        C        0.46875        0.37037        0.24477491907514454        0        
C1        C        0.4375        0.46296300000000007        0.24477491907514454        0        
C2        C        0.46875        0.518519        0.24477491907514454        0        
C3        C        0.4375        0.537037        0.24477491907514454        0        
C4        C        0.46875        0.481481        0.24477491907514454        0        
C1        C        0.4375        0.574075        0.24477491907514454        0        
C2        C        0.46875        0.62963        0.24477491907514454        0        
C3        C        0.4375        0.648148        0.24477491907514454        0        
C4        C        0.46875        0.592592        0.24477491907514454        0        
C_FG        C        0.5        0.018519        0.24477491907514454        0.2        
C2        C        0.53125        0.074075        0.24477491907514454        0        
C3        C        0.5        0.092592        0.24477491907514454        0        
C4        C        0.53125        0.037037        0.24477491907514454        0        
C1        C        0.5        0.12963        0.24477491907514454        0        
C2        C        0.53125        0.185185        0.24477491907514454        0        
C3        C        0.5        0.203703        0.24477491907514454        0        
C4        C        0.53125        0.148148        0.24477491907514454        0        
C1        C        0.5        0.24074099999999998        0.24477491907514454        0        
C2        C        0.53125        0.296297        0.24477491907514454        0        
C_FG        C        0.5        0.314815        0.24477491907514454        0.2        
C4        C        0.53125        0.259259        0.24477491907514454        0        
C1        C        0.5        0.351852        0.24477491907514454        0        
C2        C        0.53125        0.407408        0.24477491907514454        0        
C3        C        0.5        0.42592500000000005        0.24477491907514454        0        
C4        C        0.53125        0.37037        0.24477491907514454        0        
C1        C        0.5        0.46296300000000007        0.24477491907514454        0        
C2        C        0.53125        0.518519        0.24477491907514454        0        
C3        C        0.5        0.537037        0.24477491907514454        0        
C4        C        0.53125        0.481481        0.24477491907514454        0        
C_FG        C        0.5        0.574075        0.24477491907514454        0.2        
C2        C        0.53125        0.62963        0.24477491907514454        0        
C3        C        0.5        0.648148        0.24477491907514454        0        
C4        C        0.53125        0.592592        0.24477491907514454        0        
C1        C        0.5625        0.018519        0.24477491907514454        0        
C2        C        0.59375        0.074075        0.24477491907514454        0        
C3        C        0.5625        0.092592        0.24477491907514454        0        
C4        C        0.59375        0.037037        0.24477491907514454        0        
C1        C        0.5625        0.12963        0.24477491907514454        0        
C2        C        0.59375        0.185185        0.24477491907514454        0        
C3        C        0.5625        0.203703        0.24477491907514454        0        
C4        C        0.59375        0.148148        0.24477491907514454        0        
C1        C        0.5625        0.24074099999999998        0.24477491907514454        0        
C2        C        0.59375        0.296297        0.24477491907514454        0        
C3        C        0.5625        0.314815        0.24477491907514454        0        
C4        C        0.59375        0.259259        0.24477491907514454        0        
C1        C        0.5625        0.351852        0.24477491907514454        0        
C2        C        0.59375        0.407408        0.24477491907514454        0        
C3        C        0.5625        0.42592500000000005        0.24477491907514454        0        
C4        C        0.59375        0.37037        0.24477491907514454        0        
C1        C        0.5625        0.46296300000000007        0.24477491907514454        0        
C2        C        0.59375        0.518519        0.24477491907514454        0        
C3        C        0.5625        0.537037        0.24477491907514454        0        
C4        C        0.59375        0.481481        0.24477491907514454        0        
C1        C        0.5625        0.574075        0.24477491907514454        0        
C2        C        0.59375        0.62963        0.24477491907514454        0        
C3        C        0.5625        0.648148        0.24477491907514454        0        
C4        C        0.59375        0.592592        0.24477491907514454        0        
C1        C        0.625        0.018519        0.24477491907514454        0        
C2        C        0.65625        0.074075        0.24477491907514454        0        
C3        C        0.625        0.092592        0.24477491907514454        0        
C4        C        0.65625        0.037037        0.24477491907514454        0        
C1        C        0.625        0.12963        0.24477491907514454        0        
C2        C        0.65625        0.185185        0.24477491907514454        0        
C3        C        0.625        0.203703        0.24477491907514454        0        
C4        C        0.65625        0.148148        0.24477491907514454        0        
C1        C        0.625        0.24074099999999998        0.24477491907514454        0        
C2        C        0.65625        0.296297        0.24477491907514454        0        
C3        C        0.625        0.314815        0.24477491907514454        0        
C4        C        0.65625        0.259259        0.24477491907514454        0        
C1        C        0.625        0.351852        0.24477491907514454        0        
C2        C        0.65625        0.407408        0.24477491907514454        0        
C3        C        0.625        0.42592500000000005        0.24477491907514454        0        
C4        C        0.65625        0.37037        0.24477491907514454        0        
C1        C        0.625        0.46296300000000007        0.24477491907514454        0        
C2        C        0.65625        0.518519        0.24477491907514454        0        
C3        C        0.625        0.537037        0.24477491907514454        0        
C4        C        0.65625        0.481481        0.24477491907514454        0        
C1        C        0.625        0.574075        0.24477491907514454        0        
C2        C        0.65625        0.62963        0.24477491907514454        0        
C3        C        0.625        0.648148        0.24477491907514454        0        
C4        C        0.65625        0.592592        0.24477491907514454        0        
C1        C        0.6875        0.018519        0.24477491907514454        0        
C2        C        0.71875        0.074075        0.24477491907514454        0        
C3        C        0.6875        0.092592        0.24477491907514454        0        
C4        C        0.71875        0.037037        0.24477491907514454        0        
C1        C        0.6875        0.12963        0.24477491907514454        0        
C2        C        0.71875        0.185185        0.24477491907514454        0        
C3        C        0.6875        0.203703        0.24477491907514454        0        
C4        C        0.71875        0.148148        0.24477491907514454        0        
C1        C        0.6875        0.24074099999999998        0.24477491907514454        0        
C2        C        0.71875        0.296297        0.24477491907514454        0        
C3        C        0.6875        0.314815        0.24477491907514454        0        
C4        C        0.71875        0.259259        0.24477491907514454        0        
C1        C        0.6875        0.351852        0.24477491907514454        0        
C2        C        0.71875        0.407408        0.24477491907514454        0        
C3        C        0.6875        0.42592500000000005        0.24477491907514454        0        
C4        C        0.71875        0.37037        0.24477491907514454        0        
C1        C        0.6875        0.46296300000000007        0.24477491907514454        0        
C2        C        0.71875        0.518519        0.24477491907514454        0        
C3        C        0.6875        0.537037        0.24477491907514454        0        
C4        C        0.71875        0.481481        0.24477491907514454        0        
C1        C        0.6875        0.574075        0.24477491907514454        0        
C2        C        0.71875        0.62963        0.24477491907514454        0        
C3        C        0.6875        0.648148        0.24477491907514454        0        
C4        C        0.71875        0.592592        0.24477491907514454        0        
C_FG        C        0.75        0.018519        0.24477491907514454        0.2        
C2        C        0.78125        0.074075        0.24477491907514454        0        
C3        C        0.75        0.092592        0.24477491907514454        0        
C4        C        0.78125        0.037037        0.24477491907514454        0        
C1        C        0.75        0.12963        0.24477491907514454        0        
C2        C        0.78125        0.185185        0.24477491907514454        0        
C3        C        0.75        0.203703        0.24477491907514454        0        
C4        C        0.78125        0.148148        0.24477491907514454        0        
C1        C        0.75        0.24074099999999998        0.24477491907514454        0        
C2        C        0.78125        0.296297        0.24477491907514454        0        
C_FG        C        0.75        0.314815        0.24477491907514454        0.2        
C4        C        0.78125        0.259259        0.24477491907514454        0        
C1        C        0.75        0.351852        0.24477491907514454        0        
C2        C        0.78125        0.407408        0.24477491907514454        0        
C3        C        0.75        0.42592500000000005        0.24477491907514454        0        
C4        C        0.78125        0.37037        0.24477491907514454        0        
C1        C        0.75        0.46296300000000007        0.24477491907514454        0        
C2        C        0.78125        0.518519        0.24477491907514454        0        
C3        C        0.75        0.537037        0.24477491907514454        0        
C4        C        0.78125        0.481481        0.24477491907514454        0        
C_FG        C        0.75        0.574075        0.24477491907514454        0.2        
C2        C        0.78125        0.62963        0.24477491907514454        0        
C3        C        0.75        0.648148        0.24477491907514454        0        
C4        C        0.78125        0.592592        0.24477491907514454        0        
C1        C        0.8125        0.018519        0.24477491907514454        0        
C2        C        0.84375        0.074075        0.24477491907514454        0        
C3        C        0.8125        0.092592        0.24477491907514454        0        
C4        C        0.84375        0.037037        0.24477491907514454        0        
C1        C        0.8125        0.12963        0.24477491907514454        0        
C2        C        0.84375        0.185185        0.24477491907514454        0        
C3        C        0.8125        0.203703        0.24477491907514454        0        
C4        C        0.84375        0.148148        0.24477491907514454        0        
C1        C        0.8125        0.24074099999999998        0.24477491907514454        0        
C2        C        0.84375        0.296297        0.24477491907514454        0        
C3        C        0.8125        0.314815        0.24477491907514454        0        
C4        C        0.84375        0.259259        0.24477491907514454        0        
C1        C        0.8125        0.351852        0.24477491907514454        0        
C2        C        0.84375        0.407408        0.24477491907514454        0        
C3        C        0.8125        0.42592500000000005        0.24477491907514454        0        
C4        C        0.84375        0.37037        0.24477491907514454        0        
C1        C        0.8125        0.46296300000000007        0.24477491907514454        0        
C2        C        0.84375        0.518519        0.24477491907514454        0        
C3        C        0.8125        0.537037        0.24477491907514454        0        
C4        C        0.84375        0.481481        0.24477491907514454        0        
C1        C        0.8125        0.574075        0.24477491907514454        0        
C2        C        0.84375        0.62963        0.24477491907514454        0        
C3        C        0.8125        0.648148        0.24477491907514454        0        
C4        C        0.84375        0.592592        0.24477491907514454        0        
C1        C        0.875        0.018519        0.24477491907514454        0        
C2        C        0.9062500000000001        0.074075        0.24477491907514454        0        
C3        C        0.875        0.092592        0.24477491907514454        0        
C4        C        0.9062500000000001        0.037037        0.24477491907514454        0        
C1        C        0.875        0.12963        0.24477491907514454        0        
C2        C        0.9062500000000001        0.185185        0.24477491907514454        0        
C3        C        0.875        0.203703        0.24477491907514454        0        
C4        C        0.9062500000000001        0.148148        0.24477491907514454        0        
C1        C        0.875        0.24074099999999998        0.24477491907514454        0        
C2        C        0.9062500000000001        0.296297        0.24477491907514454        0        
C3        C        0.875        0.314815        0.24477491907514454        0        
C4        C        0.9062500000000001        0.259259        0.24477491907514454        0        
C1        C        0.875        0.351852        0.24477491907514454        0        
C2        C        0.9062500000000001        0.407408        0.24477491907514454        0        
C3        C        0.875        0.42592500000000005        0.24477491907514454        0        
C4        C        0.9062500000000001        0.37037        0.24477491907514454        0        
C1        C        0.875        0.46296300000000007        0.24477491907514454        0        
C2        C        0.9062500000000001        0.518519        0.24477491907514454        0        
C3        C        0.875        0.537037        0.24477491907514454        0        
C4        C        0.9062500000000001        0.481481        0.24477491907514454        0        
C1        C        0.875        0.574075        0.24477491907514454        0        
C2        C        0.9062500000000001        0.62963        0.24477491907514454        0        
C3        C        0.875        0.648148        0.24477491907514454        0        
C4        C        0.9062500000000001        0.592592        0.24477491907514454        0        
C1        C        0.9375        0.018519        0.24477491907514454        0        
C2        C        0.9687500000000001        0.074075        0.24477491907514454        0        
C3        C        0.9375        0.092592        0.24477491907514454        0        
C4        C        0.9687500000000001        0.037037        0.24477491907514454        0        
C1        C        0.9375        0.12963        0.24477491907514454        0        
C2        C        0.9687500000000001        0.185185        0.24477491907514454        0        
C3        C        0.9375        0.203703        0.24477491907514454        0        
C4        C        0.9687500000000001        0.148148        0.24477491907514454        0        
C1        C        0.9375        0.24074099999999998        0.24477491907514454        0        
C2        C        0.9687500000000001        0.296297        0.24477491907514454        0        
C3        C        0.9375        0.314815        0.24477491907514454        0        
C4        C        0.9687500000000001        0.259259        0.24477491907514454        0        
C1        C        0.9375        0.351852        0.24477491907514454        0        
C2        C        0.9687500000000001        0.407408        0.24477491907514454        0        
C3        C        0.9375        0.42592500000000005        0.24477491907514454        0        
C4        C        0.9687500000000001        0.37037        0.24477491907514454        0        
C1        C        0.9375        0.46296300000000007        0.24477491907514454        0        
C2        C        0.9687500000000001        0.518519        0.24477491907514454        0        
C3        C        0.9375        0.537037        0.24477491907514454        0        
C4        C        0.9687500000000001        0.481481        0.24477491907514454        0        
C1        C        0.9375        0.574075        0.24477491907514454        0        
C2        C        0.9687500000000001        0.62963        0.24477491907514454        0        
C3        C        0.9375        0.648148        0.24477491907514454        0        
C4        C        0.9687500000000001        0.592592        0.24477491907514454        0        
C1        C        0.0        0.685186        0.24477491907514454        0        
C1        C        0.0625        0.685186        0.24477491907514454        0        
C1        C        0.125        0.685186        0.24477491907514454        0        
C1        C        0.1875        0.685186        0.24477491907514454        0        
C1        C        0.25        0.685186        0.24477491907514454        0        
C1        C        0.3125        0.685186        0.24477491907514454        0        
C1        C        0.375        0.685186        0.24477491907514454        0        
C1        C        0.4375        0.685186        0.24477491907514454        0        
C1        C        0.5        0.685186        0.24477491907514454        0        
C1        C        0.5625        0.685186        0.24477491907514454        0        
C1        C        0.625        0.685186        0.24477491907514454        0        
C1        C        0.6875        0.685186        0.24477491907514454        0        
C1        C        0.75        0.685186        0.24477491907514454        0        
C1        C        0.8125        0.685186        0.24477491907514454        0        
C1        C        0.875        0.685186        0.24477491907514454        0        
C1        C        0.9375        0.685186        0.24477491907514454        0        
C2        C        0.03125        0.740741        0.24477491907514454        0        
C2        C        0.09375        0.740741        0.24477491907514454        0        
C2        C        0.15625        0.740741        0.24477491907514454        0        
C2        C        0.21875        0.740741        0.24477491907514454        0        
C2        C        0.28125        0.740741        0.24477491907514454        0        
C2        C        0.34375        0.740741        0.24477491907514454        0        
C2        C        0.40625        0.740741        0.24477491907514454        0        
C2        C        0.46875        0.740741        0.24477491907514454        0        
C2        C        0.53125        0.740741        0.24477491907514454        0        
C2        C        0.59375        0.740741        0.24477491907514454        0        
C2        C        0.65625        0.740741        0.24477491907514454        0        
C2        C        0.71875        0.740741        0.24477491907514454        0        
C2        C        0.78125        0.740741        0.24477491907514454        0        
C2        C        0.84375        0.740741        0.24477491907514454        0        
C2        C        0.9062500000000001        0.740741        0.24477491907514454        0        
C2        C        0.9687500000000001        0.740741        0.24477491907514454        0        
C3        C        0.0        0.759259        0.24477491907514454        0        
C3        C        0.0625        0.759259        0.24477491907514454        0        
C3        C        0.125        0.759259        0.24477491907514454        0        
C3        C        0.1875        0.759259        0.24477491907514454        0        
C3        C        0.25        0.759259        0.24477491907514454        0        
C3        C        0.3125        0.759259        0.24477491907514454        0        
C3        C        0.375        0.759259        0.24477491907514454        0        
C3        C        0.4375        0.759259        0.24477491907514454        0        
C3        C        0.5        0.759259        0.24477491907514454        0        
C3        C        0.5625        0.759259        0.24477491907514454        0        
C3        C        0.625        0.759259        0.24477491907514454        0        
C3        C        0.6875        0.759259        0.24477491907514454        0        
C3        C        0.75        0.759259        0.24477491907514454        0        
C3        C        0.8125        0.759259        0.24477491907514454        0        
C3        C        0.875        0.759259        0.24477491907514454        0        
C3        C        0.9375        0.759259        0.24477491907514454        0        
C4        C        0.03125        0.703703        0.24477491907514454        0        
C4        C        0.09375        0.703703        0.24477491907514454        0        
C4        C        0.15625        0.703703        0.24477491907514454        0        
C4        C        0.21875        0.703703        0.24477491907514454        0        
C4        C        0.28125        0.703703        0.24477491907514454        0        
C4        C        0.34375        0.703703        0.24477491907514454        0        
C4        C        0.40625        0.703703        0.24477491907514454        0        
C4        C        0.46875        0.703703        0.24477491907514454        0        
C4        C        0.53125        0.703703        0.24477491907514454        0        
C4        C        0.59375        0.703703        0.24477491907514454        0        
C4        C        0.65625        0.703703        0.24477491907514454        0        
C4        C        0.71875        0.703703        0.24477491907514454        0        
C4        C        0.78125        0.703703        0.24477491907514454        0        
C4        C        0.84375        0.703703        0.24477491907514454        0        
C4        C        0.9062500000000001        0.703703        0.24477491907514454        0        
C4        C        0.9687500000000001        0.703703        0.24477491907514454        0        
C1        C        0.0        0.796297        0.24477491907514454        0        
C1        C        0.0625        0.796297        0.24477491907514454        0        
C1        C        0.125        0.796297        0.24477491907514454        0        
C1        C        0.1875        0.796297        0.24477491907514454        0        
C1        C        0.25        0.796297        0.24477491907514454        0        
C1        C        0.3125        0.796297        0.24477491907514454        0        
C1        C        0.375        0.796297        0.24477491907514454        0        
C1        C        0.4375        0.796297        0.24477491907514454        0        
C1        C        0.5        0.796297        0.24477491907514454        0        
C1        C        0.5625        0.796297        0.24477491907514454        0        
C1        C        0.625        0.796297        0.24477491907514454        0        
C1        C        0.6875        0.796297        0.24477491907514454        0        
C1        C        0.75        0.796297        0.24477491907514454        0        
C1        C        0.8125        0.796297        0.24477491907514454        0        
C1        C        0.875        0.796297        0.24477491907514454        0        
C1        C        0.9375        0.796297        0.24477491907514454        0        
C2        C        0.03125        0.851852        0.24477491907514454        0        
C2        C        0.09375        0.851852        0.24477491907514454        0        
C2        C        0.15625        0.851852        0.24477491907514454        0        
C2        C        0.21875        0.851852        0.24477491907514454        0        
C2        C        0.28125        0.851852        0.24477491907514454        0        
C2        C        0.34375        0.851852        0.24477491907514454        0        
C2        C        0.40625        0.851852        0.24477491907514454        0        
C2        C        0.46875        0.851852        0.24477491907514454        0        
C2        C        0.53125        0.851852        0.24477491907514454        0        
C2        C        0.59375        0.851852        0.24477491907514454        0        
C2        C        0.65625        0.851852        0.24477491907514454        0        
C2        C        0.71875        0.851852        0.24477491907514454        0        
C2        C        0.78125        0.851852        0.24477491907514454        0        
C2        C        0.84375        0.851852        0.24477491907514454        0        
C2        C        0.9062500000000001        0.851852        0.24477491907514454        0        
C2        C        0.9687500000000001        0.851852        0.24477491907514454        0        
C_FG        C        0.0        0.87037        0.24477491907514454        0.2        
C3        C        0.0625        0.87037        0.24477491907514454        0        
C3        C        0.125        0.87037        0.24477491907514454        0        
C3        C        0.1875        0.87037        0.24477491907514454        0        
C_FG        C        0.25        0.87037        0.24477491907514454        0.2        
C3        C        0.3125        0.87037        0.24477491907514454        0        
C3        C        0.375        0.87037        0.24477491907514454        0        
C3        C        0.4375        0.87037        0.24477491907514454        0        
C_FG        C        0.5        0.87037        0.24477491907514454        0.2        
C3        C        0.5625        0.87037        0.24477491907514454        0        
C3        C        0.625        0.87037        0.24477491907514454        0        
C3        C        0.6875        0.87037        0.24477491907514454        0        
C_FG        C        0.75        0.87037        0.24477491907514454        0.2        
C3        C        0.8125        0.87037        0.24477491907514454        0        
C3        C        0.875        0.87037        0.24477491907514454        0        
C3        C        0.9375        0.87037        0.24477491907514454        0        
C4        C        0.03125        0.814814        0.24477491907514454        0        
C4        C        0.09375        0.814814        0.24477491907514454        0        
C4        C        0.15625        0.814814        0.24477491907514454        0        
C4        C        0.21875        0.814814        0.24477491907514454        0        
C4        C        0.28125        0.814814        0.24477491907514454        0        
C4        C        0.34375        0.814814        0.24477491907514454        0        
C4        C        0.40625        0.814814        0.24477491907514454        0        
C4        C        0.46875        0.814814        0.24477491907514454        0        
C4        C        0.53125        0.814814        0.24477491907514454        0        
C4        C        0.59375        0.814814        0.24477491907514454        0        
C4        C        0.65625        0.814814        0.24477491907514454        0        
C4        C        0.71875        0.814814        0.24477491907514454        0        
C4        C        0.78125        0.814814        0.24477491907514454        0        
C4        C        0.84375        0.814814        0.24477491907514454        0        
C4        C        0.9062500000000001        0.814814        0.24477491907514454        0        
C4        C        0.9687500000000001        0.814814        0.24477491907514454        0        
C1        C        0.0        0.907408        0.24477491907514454        0        
C1        C        0.0625        0.907408        0.24477491907514454        0        
C1        C        0.125        0.907408        0.24477491907514454        0        
C1        C        0.1875        0.907408        0.24477491907514454        0        
C1        C        0.25        0.907408        0.24477491907514454        0        
C1        C        0.3125        0.907408        0.24477491907514454        0        
C1        C        0.375        0.907408        0.24477491907514454        0        
C1        C        0.4375        0.907408        0.24477491907514454        0        
C1        C        0.5        0.907408        0.24477491907514454        0        
C1        C        0.5625        0.907408        0.24477491907514454        0        
C1        C        0.625        0.907408        0.24477491907514454        0        
C1        C        0.6875        0.907408        0.24477491907514454        0        
C1        C        0.75        0.907408        0.24477491907514454        0        
C1        C        0.8125        0.907408        0.24477491907514454        0        
C1        C        0.875        0.907408        0.24477491907514454        0        
C1        C        0.9375        0.907408        0.24477491907514454        0        
C2        C        0.03125        0.962963        0.24477491907514454        0        
C2        C        0.09375        0.962963        0.24477491907514454        0        
C2        C        0.15625        0.962963        0.24477491907514454        0        
C2        C        0.21875        0.962963        0.24477491907514454        0        
C2        C        0.28125        0.962963        0.24477491907514454        0        
C2        C        0.34375        0.962963        0.24477491907514454        0        
C2        C        0.40625        0.962963        0.24477491907514454        0        
C2        C        0.46875        0.962963        0.24477491907514454        0        
C2        C        0.53125        0.962963        0.24477491907514454        0        
C2        C        0.59375        0.962963        0.24477491907514454        0        
C2        C        0.65625        0.962963        0.24477491907514454        0        
C2        C        0.71875        0.962963        0.24477491907514454        0        
C2        C        0.78125        0.962963        0.24477491907514454        0        
C2        C        0.84375        0.962963        0.24477491907514454        0        
C2        C        0.9062500000000001        0.962963        0.24477491907514454        0        
C2        C        0.9687500000000001        0.962963        0.24477491907514454        0        
C3        C        0.0        0.9814809999999999        0.24477491907514454        0        
C3        C        0.0625        0.9814809999999999        0.24477491907514454        0        
C3        C        0.125        0.9814809999999999        0.24477491907514454        0        
C3        C        0.1875        0.9814809999999999        0.24477491907514454        0        
C3        C        0.25        0.9814809999999999        0.24477491907514454        0        
C3        C        0.3125        0.9814809999999999        0.24477491907514454        0        
C3        C        0.375        0.9814809999999999        0.24477491907514454        0        
C3        C        0.4375        0.9814809999999999        0.24477491907514454        0        
C3        C        0.5        0.9814809999999999        0.24477491907514454        0        
C3        C        0.5625        0.9814809999999999        0.24477491907514454        0        
C3        C        0.625        0.9814809999999999        0.24477491907514454        0        
C3        C        0.6875        0.9814809999999999        0.24477491907514454        0        
C3        C        0.75        0.9814809999999999        0.24477491907514454        0        
C3        C        0.8125        0.9814809999999999        0.24477491907514454        0        
C3        C        0.875        0.9814809999999999        0.24477491907514454        0        
C3        C        0.9375        0.9814809999999999        0.24477491907514454        0        
C4        C        0.03125        0.925925        0.24477491907514454        0        
C4        C        0.09375        0.925925        0.24477491907514454        0        
C4        C        0.15625        0.925925        0.24477491907514454        0        
C4        C        0.21875        0.925925        0.24477491907514454        0        
C4        C        0.28125        0.925925        0.24477491907514454        0        
C4        C        0.34375        0.925925        0.24477491907514454        0        
C4        C        0.40625        0.925925        0.24477491907514454        0        
C4        C        0.46875        0.925925        0.24477491907514454        0        
C4        C        0.53125        0.925925        0.24477491907514454        0        
C4        C        0.59375        0.925925        0.24477491907514454        0        
C4        C        0.65625        0.925925        0.24477491907514454        0        
C4        C        0.71875        0.925925        0.24477491907514454        0        
C4        C        0.78125        0.925925        0.24477491907514454        0        
C4        C        0.84375        0.925925        0.24477491907514454        0        
C4        C        0.9062500000000001        0.925925        0.24477491907514454        0        
C4        C        0.9687500000000001        0.925925        0.24477491907514454        0        
O_OH        O        0.0        0.018519        0.00971673410404624        -0.64        
O_OH        O        0.0        0.314815        0.00971673410404624        -0.64        
O_OH        O        0.0        0.574075        0.00971673410404624        -0.64        
O_OH        O        0.25        0.018519        0.00971673410404624        -0.64        
O_OH        O        0.25        0.314815        0.00971673410404624        -0.64        
O_OH        O        0.25        0.574075        0.00971673410404624        -0.64        
O_OH        O        0.5        0.018519        0.00971673410404624        -0.64        
O_OH        O        0.5        0.314815        0.00971673410404624        -0.64        
O_OH        O        0.5        0.574075        0.00971673410404624        -0.64        
O_OH        O        0.75        0.018519        0.00971673410404624        -0.64        
O_OH        O        0.75        0.314815        0.00971673410404624        -0.64        
O_OH        O        0.75        0.574075        0.00971673410404624        -0.64        
O_OH        O        0.0        0.87037        0.00971673410404624        -0.64        
O_OH        O        0.25        0.87037        0.00971673410404624        -0.64        
O_OH        O        0.5        0.87037        0.00971673410404624        -0.64        
O_OH        O        0.75        0.87037        0.00971673410404624        -0.64        
O_OH        O        0.0        0.018519        0.2861907225433526        -0.64        
O_OH        O        0.0        0.314815        0.2861907225433526        -0.64        
O_OH        O        0.0        0.574075        0.2861907225433526        -0.64        
O_OH        O        0.25        0.018519        0.2861907225433526        -0.64        
O_OH        O        0.25        0.314815        0.2861907225433526        -0.64        
O_OH        O        0.25        0.574075        0.2861907225433526        -0.64        
O_OH        O        0.5        0.018519        0.2861907225433526        -0.64        
O_OH        O        0.5        0.314815        0.2861907225433526        -0.64        
O_OH        O        0.5        0.574075        0.2861907225433526        -0.64        
O_OH        O        0.75        0.018519        0.2861907225433526        -0.64        
O_OH        O        0.75        0.314815        0.2861907225433526        -0.64        
O_OH        O        0.75        0.574075        0.2861907225433526        -0.64        
O_OH        O        0.0        0.87037        0.2861907225433526        -0.64        
O_OH        O        0.25        0.87037        0.2861907225433526        -0.64        
O_OH        O        0.5        0.87037        0.2861907225433526        -0.64        
O_OH        O        0.75        0.87037        0.2861907225433526        -0.64        
H_OH        H        -0.010505176896770925        0.03934579807152474        0.0        0.44        
H_OH        H        0.014243988199861847        0.3331516869316642        0.0        0.44        
H_OH        H        0.021009377268462408        0.583287614251742        0.0        0.44        
H_OH        H        0.27283990557992        0.0190455167671231        0.0        0.44        
H_OH        H        0.2603832901156263        0.3357061181449636        0.0        0.44        
H_OH        H        0.2728258098198105        0.575052557246648        0.0        0.44        
H_OH        H        0.4822901018981698        0.033334992961088245        0.0        0.44        
H_OH        H        0.5108107017988408        0.3354763614521884        0.0        0.44        
H_OH        H        0.5227542969184317        0.5761704537245883        0.0        0.44        
H_OH        H        0.7437848613556292        0.04108786666340393        0.0        0.44        
H_OH        H        0.7695675974082903        0.32691994000204205        0.0        0.44        
H_OH        H        0.7420576195320652        0.59606549459966        0.0        0.44        
H_OH        H        0.013617280766648348        0.8892017914828767        0.0        0.44        
H_OH        H        0.23767697072916424        0.890118918701523        0.0        0.44        
H_OH        H        0.5156504434678453        0.8874557251049408        0.0        0.44        
H_OH        H        0.767962553990158        0.8848618893188626        0.0        0.44        
H_OH        H        0.022702968759014393        0.021136243347334403        0.2959074566473988        0.44        
H_OH        H        0.004755245164861833        0.33775476524583653        0.2959074566473988        0.44        
H_OH        H        -0.010987713359989838        0.5946377149751764        0.2959074566473988        0.44        
H_OH        H        0.2483886721764257        0.04191404196566698        0.2959074566473988        0.44        
H_OH        H        0.27239133417908223        0.3194690932762224        0.2959074566473988        0.44        
H_OH        H        0.2575805608017961        0.5961996734934121        0.2959074566473988        0.44        
H_OH        H        0.4780090508558137        0.024874208272518177        0.2959074566473988        0.44        
H_OH        H        0.47745613396256287        0.31861460422667554        0.2959074566473988        0.44        
H_OH        H        0.4829689962991342        0.5897073600183865        0.2959074566473988        0.44        
H_OH        H        0.772425509367379        0.022996318532886986        0.2959074566473988        0.44        
H_OH        H        0.7681261865050044        0.3290905446650129        0.2959074566473988        0.44        
H_OH        H        0.7673460661062917        0.5893378895810022        0.2959074566473988        0.44        
H_OH        H        0.007332333215873757        0.8925826665295696        0.2959074566473988        0.44        
H_OH        H        0.27243593297429736        0.8747919397497036        0.2959074566473988        0.44        
H_OH        H        0.47769839753402427        0.8754579446695803        0.2959074566473988        0.44        
H_OH        H        0.7448815963046947        0.8932272483785916        0.2959074566473988        0.44        
