data_graphite_ortho

_audit_creation_method RASPA-1.0
_audit_creation_date 2012-2-3
_audit_author_name 'David Dubbeldam'

_cell_length_a    29.52    
_cell_length_b    38.34    
_cell_length_c    28.9    
_cell_angle_alpha 90
_cell_angle_beta  90
_cell_angle_gamma 90
_cell_volume      32708.93      

_symmetry_cell_setting          triclinic
_symmetry_space_group_name_Hall 'P 1'
_symmetry_space_group_name_H-M  'P 1'
_symmetry_Int_Tables_number     1

_symmetry_equiv_pos_as_xyz 'x,y,z'

loop_
_atom_site_label
_atom_site_type_symbol
_atom_site_fract_x
_atom_site_fract_y
_atom_site_fract_z
_atom_site_charge
C1        C        0.0        0.018519        0.0        0        
C2        C        0.041667        0.074075        0.0        0        
C3        C        0.0        0.092592        0.0        0        
C4        C        0.041667        0.037037        0.0        0        
C1        C        0.0        0.12963        0.0        0        
C2        C        0.041667        0.185185        0.0        0        
C3        C        0.0        0.203703        0.0        0        
C4        C        0.041667        0.148148        0.0        0        
C1        C        0.0        0.24074099999999998        0.0        0        
C2        C        0.041667        0.296297        0.0        0        
C3        C        0.0        0.314815        0.0        0        
C4        C        0.041667        0.259259        0.0        0        
C1        C        0.0        0.351852        0.0        0        
C2        C        0.041667        0.407408        0.0        0        
C3        C        0.0        0.42592500000000005        0.0        0        
C4        C        0.041667        0.37037        0.0        0        
C1        C        0.0        0.46296300000000007        0.0        0        
C2        C        0.041667        0.518519        0.0        0        
C3        C        0.0        0.537037        0.0        0        
C4        C        0.041667        0.481481        0.0        0        
C1        C        0.0        0.574075        0.0        0        
C2        C        0.041667        0.62963        0.0        0        
C3        C        0.0        0.648148        0.0        0        
C4        C        0.041667        0.592592        0.0        0        
C1        C        0.083333        0.018519        0.0        0        
C2        C        0.125        0.074075        0.0        0        
C3        C        0.083333        0.092592        0.0        0        
C4        C        0.125        0.037037        0.0        0        
C1        C        0.083333        0.12963        0.0        0        
C2        C        0.125        0.185185        0.0        0        
C3        C        0.083333        0.203703        0.0        0        
C4        C        0.125        0.148148        0.0        0        
C1        C        0.083333        0.24074099999999998        0.0        0        
C2        C        0.125        0.296297        0.0        0        
C3        C        0.083333        0.314815        0.0        0        
C4        C        0.125        0.259259        0.0        0        
C1        C        0.083333        0.351852        0.0        0        
C2        C        0.125        0.407408        0.0        0        
C3        C        0.083333        0.42592500000000005        0.0        0        
C4        C        0.125        0.37037        0.0        0        
C1        C        0.083333        0.46296300000000007        0.0        0        
C2        C        0.125        0.518519        0.0        0        
C3        C        0.083333        0.537037        0.0        0        
C4        C        0.125        0.481481        0.0        0        
C1        C        0.083333        0.574075        0.0        0        
C2        C        0.125        0.62963        0.0        0        
C3        C        0.083333        0.648148        0.0        0        
C4        C        0.125        0.592592        0.0        0        
C1        C        0.166667        0.018519        0.0        0        
C2        C        0.208333        0.074075        0.0        0        
C3        C        0.166667        0.092592        0.0        0        
C4        C        0.208333        0.037037        0.0        0        
C1        C        0.166667        0.12963        0.0        0        
C2        C        0.208333        0.185185        0.0        0        
C3        C        0.166667        0.203703        0.0        0        
C4        C        0.208333        0.148148        0.0        0        
C1        C        0.166667        0.24074099999999998        0.0        0        
C2        C        0.208333        0.296297        0.0        0        
C3        C        0.166667        0.314815        0.0        0        
C4        C        0.208333        0.259259        0.0        0        
C1        C        0.166667        0.351852        0.0        0        
C2        C        0.208333        0.407408        0.0        0        
C3        C        0.166667        0.42592500000000005        0.0        0        
C4        C        0.208333        0.37037        0.0        0        
C1        C        0.166667        0.46296300000000007        0.0        0        
C2        C        0.208333        0.518519        0.0        0        
C3        C        0.166667        0.537037        0.0        0        
C4        C        0.208333        0.481481        0.0        0        
C1        C        0.166667        0.574075        0.0        0        
C2        C        0.208333        0.62963        0.0        0        
C3        C        0.166667        0.648148        0.0        0        
C4        C        0.208333        0.592592        0.0        0        
C1        C        0.25        0.018519        0.0        0        
C2        C        0.291667        0.074075        0.0        0        
C3        C        0.25        0.092592        0.0        0        
C4        C        0.291667        0.037037        0.0        0        
C1        C        0.25        0.12963        0.0        0        
C2        C        0.291667        0.185185        0.0        0        
C3        C        0.25        0.203703        0.0        0        
C4        C        0.291667        0.148148        0.0        0        
C1        C        0.25        0.24074099999999998        0.0        0        
C2        C        0.291667        0.296297        0.0        0        
C3        C        0.25        0.314815        0.0        0        
C4        C        0.291667        0.259259        0.0        0        
C1        C        0.25        0.351852        0.0        0        
C2        C        0.291667        0.407408        0.0        0        
C3        C        0.25        0.42592500000000005        0.0        0        
C4        C        0.291667        0.37037        0.0        0        
C1        C        0.25        0.46296300000000007        0.0        0        
C2        C        0.291667        0.518519        0.0        0        
C3        C        0.25        0.537037        0.0        0        
C4        C        0.291667        0.481481        0.0        0        
C1        C        0.25        0.574075        0.0        0        
C2        C        0.291667        0.62963        0.0        0        
C3        C        0.25        0.648148        0.0        0        
C4        C        0.291667        0.592592        0.0        0        
C1        C        0.333333        0.018519        0.0        0        
C2        C        0.375        0.074075        0.0        0        
C3        C        0.333333        0.092592        0.0        0        
C4        C        0.375        0.037037        0.0        0        
C1        C        0.333333        0.12963        0.0        0        
C2        C        0.375        0.185185        0.0        0        
C3        C        0.333333        0.203703        0.0        0        
C4        C        0.375        0.148148        0.0        0        
C1        C        0.333333        0.24074099999999998        0.0        0        
C2        C        0.375        0.296297        0.0        0        
C3        C        0.333333        0.314815        0.0        0        
C4        C        0.375        0.259259        0.0        0        
C1        C        0.333333        0.351852        0.0        0        
C2        C        0.375        0.407408        0.0        0        
C3        C        0.333333        0.42592500000000005        0.0        0        
C4        C        0.375        0.37037        0.0        0        
C1        C        0.333333        0.46296300000000007        0.0        0        
C2        C        0.375        0.518519        0.0        0        
C3        C        0.333333        0.537037        0.0        0        
C4        C        0.375        0.481481        0.0        0        
C1        C        0.333333        0.574075        0.0        0        
C2        C        0.375        0.62963        0.0        0        
C3        C        0.333333        0.648148        0.0        0        
C4        C        0.375        0.592592        0.0        0        
C1        C        0.416667        0.018519        0.0        0        
C2        C        0.458333        0.074075        0.0        0        
C3        C        0.416667        0.092592        0.0        0        
C4        C        0.458333        0.037037        0.0        0        
C1        C        0.416667        0.12963        0.0        0        
C2        C        0.458333        0.185185        0.0        0        
C3        C        0.416667        0.203703        0.0        0        
C4        C        0.458333        0.148148        0.0        0        
C1        C        0.416667        0.24074099999999998        0.0        0        
C2        C        0.458333        0.296297        0.0        0        
C3        C        0.416667        0.314815        0.0        0        
C4        C        0.458333        0.259259        0.0        0        
C1        C        0.416667        0.351852        0.0        0        
C2        C        0.458333        0.407408        0.0        0        
C3        C        0.416667        0.42592500000000005        0.0        0        
C4        C        0.458333        0.37037        0.0        0        
C1        C        0.416667        0.46296300000000007        0.0        0        
C2        C        0.458333        0.518519        0.0        0        
C3        C        0.416667        0.537037        0.0        0        
C4        C        0.458333        0.481481        0.0        0        
C1        C        0.416667        0.574075        0.0        0        
C2        C        0.458333        0.62963        0.0        0        
C3        C        0.416667        0.648148        0.0        0        
C4        C        0.458333        0.592592        0.0        0        
C1        C        0.5        0.018519        0.0        0        
C2        C        0.541667        0.074075        0.0        0        
C3        C        0.5        0.092592        0.0        0        
C4        C        0.541667        0.037037        0.0        0        
C1        C        0.5        0.12963        0.0        0        
C2        C        0.541667        0.185185        0.0        0        
C3        C        0.5        0.203703        0.0        0        
C4        C        0.541667        0.148148        0.0        0        
C1        C        0.5        0.24074099999999998        0.0        0        
C2        C        0.541667        0.296297        0.0        0        
C3        C        0.5        0.314815        0.0        0        
C4        C        0.541667        0.259259        0.0        0        
C1        C        0.5        0.351852        0.0        0        
C2        C        0.541667        0.407408        0.0        0        
C3        C        0.5        0.42592500000000005        0.0        0        
C4        C        0.541667        0.37037        0.0        0        
C1        C        0.5        0.46296300000000007        0.0        0        
C2        C        0.541667        0.518519        0.0        0        
C3        C        0.5        0.537037        0.0        0        
C4        C        0.541667        0.481481        0.0        0        
C1        C        0.5        0.574075        0.0        0        
C2        C        0.541667        0.62963        0.0        0        
C3        C        0.5        0.648148        0.0        0        
C4        C        0.541667        0.592592        0.0        0        
C1        C        0.583333        0.018519        0.0        0        
C2        C        0.625        0.074075        0.0        0        
C3        C        0.583333        0.092592        0.0        0        
C4        C        0.625        0.037037        0.0        0        
C1        C        0.583333        0.12963        0.0        0        
C2        C        0.625        0.185185        0.0        0        
C3        C        0.583333        0.203703        0.0        0        
C4        C        0.625        0.148148        0.0        0        
C1        C        0.583333        0.24074099999999998        0.0        0        
C2        C        0.625        0.296297        0.0        0        
C3        C        0.583333        0.314815        0.0        0        
C4        C        0.625        0.259259        0.0        0        
C1        C        0.583333        0.351852        0.0        0        
C2        C        0.625        0.407408        0.0        0        
C3        C        0.583333        0.42592500000000005        0.0        0        
C4        C        0.625        0.37037        0.0        0        
C1        C        0.583333        0.46296300000000007        0.0        0        
C2        C        0.625        0.518519        0.0        0        
C3        C        0.583333        0.537037        0.0        0        
C4        C        0.625        0.481481        0.0        0        
C1        C        0.583333        0.574075        0.0        0        
C2        C        0.625        0.62963        0.0        0        
C3        C        0.583333        0.648148        0.0        0        
C4        C        0.625        0.592592        0.0        0        
C1        C        0.666667        0.018519        0.0        0        
C2        C        0.708333        0.074075        0.0        0        
C3        C        0.666667        0.092592        0.0        0        
C4        C        0.708333        0.037037        0.0        0        
C1        C        0.666667        0.12963        0.0        0        
C2        C        0.708333        0.185185        0.0        0        
C3        C        0.666667        0.203703        0.0        0        
C4        C        0.708333        0.148148        0.0        0        
C1        C        0.666667        0.24074099999999998        0.0        0        
C2        C        0.708333        0.296297        0.0        0        
C3        C        0.666667        0.314815        0.0        0        
C4        C        0.708333        0.259259        0.0        0        
C1        C        0.666667        0.351852        0.0        0        
C2        C        0.708333        0.407408        0.0        0        
C3        C        0.666667        0.42592500000000005        0.0        0        
C4        C        0.708333        0.37037        0.0        0        
C1        C        0.666667        0.46296300000000007        0.0        0        
C2        C        0.708333        0.518519        0.0        0        
C3        C        0.666667        0.537037        0.0        0        
C4        C        0.708333        0.481481        0.0        0        
C1        C        0.666667        0.574075        0.0        0        
C2        C        0.708333        0.62963        0.0        0        
C3        C        0.666667        0.648148        0.0        0        
C4        C        0.708333        0.592592        0.0        0        
C1        C        0.75        0.018519        0.0        0        
C2        C        0.7916670000000001        0.074075        0.0        0        
C3        C        0.75        0.092592        0.0        0        
C4        C        0.7916670000000001        0.037037        0.0        0        
C1        C        0.75        0.12963        0.0        0        
C2        C        0.7916670000000001        0.185185        0.0        0        
C3        C        0.75        0.203703        0.0        0        
C4        C        0.7916670000000001        0.148148        0.0        0        
C1        C        0.75        0.24074099999999998        0.0        0        
C2        C        0.7916670000000001        0.296297        0.0        0        
C3        C        0.75        0.314815        0.0        0        
C4        C        0.7916670000000001        0.259259        0.0        0        
C1        C        0.75        0.351852        0.0        0        
C2        C        0.7916670000000001        0.407408        0.0        0        
C3        C        0.75        0.42592500000000005        0.0        0        
C4        C        0.7916670000000001        0.37037        0.0        0        
C1        C        0.75        0.46296300000000007        0.0        0        
C2        C        0.7916670000000001        0.518519        0.0        0        
C3        C        0.75        0.537037        0.0        0        
C4        C        0.7916670000000001        0.481481        0.0        0        
C1        C        0.75        0.574075        0.0        0        
C2        C        0.7916670000000001        0.62963        0.0        0        
C3        C        0.75        0.648148        0.0        0        
C4        C        0.7916670000000001        0.592592        0.0        0        
C1        C        0.833333        0.018519        0.0        0        
C2        C        0.875        0.074075        0.0        0        
C3        C        0.833333        0.092592        0.0        0        
C4        C        0.875        0.037037        0.0        0        
C1        C        0.833333        0.12963        0.0        0        
C2        C        0.875        0.185185        0.0        0        
C3        C        0.833333        0.203703        0.0        0        
C4        C        0.875        0.148148        0.0        0        
C1        C        0.833333        0.24074099999999998        0.0        0        
C2        C        0.875        0.296297        0.0        0        
C3        C        0.833333        0.314815        0.0        0        
C4        C        0.875        0.259259        0.0        0        
C1        C        0.833333        0.351852        0.0        0        
C2        C        0.875        0.407408        0.0        0        
C3        C        0.833333        0.42592500000000005        0.0        0        
C4        C        0.875        0.37037        0.0        0        
C1        C        0.833333        0.46296300000000007        0.0        0        
C2        C        0.875        0.518519        0.0        0        
C3        C        0.833333        0.537037        0.0        0        
C4        C        0.875        0.481481        0.0        0        
C1        C        0.833333        0.574075        0.0        0        
C2        C        0.875        0.62963        0.0        0        
C3        C        0.833333        0.648148        0.0        0        
C4        C        0.875        0.592592        0.0        0        
C1        C        0.916667        0.018519        0.0        0        
C2        C        0.958333        0.074075        0.0        0        
C3        C        0.916667        0.092592        0.0        0        
C4        C        0.958333        0.037037        0.0        0        
C1        C        0.916667        0.12963        0.0        0        
C2        C        0.958333        0.185185        0.0        0        
C3        C        0.916667        0.203703        0.0        0        
C4        C        0.958333        0.148148        0.0        0        
C1        C        0.916667        0.24074099999999998        0.0        0        
C2        C        0.958333        0.296297        0.0        0        
C3        C        0.916667        0.314815        0.0        0        
C4        C        0.958333        0.259259        0.0        0        
C1        C        0.916667        0.351852        0.0        0        
C2        C        0.958333        0.407408        0.0        0        
C3        C        0.916667        0.42592500000000005        0.0        0        
C4        C        0.958333        0.37037        0.0        0        
C1        C        0.916667        0.46296300000000007        0.0        0        
C2        C        0.958333        0.518519        0.0        0        
C3        C        0.916667        0.537037        0.0        0        
C4        C        0.958333        0.481481        0.0        0        
C1        C        0.916667        0.574075        0.0        0        
C2        C        0.958333        0.62963        0.0        0        
C3        C        0.916667        0.648148        0.0        0        
C4        C        0.958333        0.592592        0.0        0        
C1        C        0.0        0.685186        0.0        0        
C1        C        0.083333        0.685186        0.0        0        
C1        C        0.166667        0.685186        0.0        0        
C1        C        0.25        0.685186        0.0        0        
C1        C        0.333333        0.685186        0.0        0        
C1        C        0.416667        0.685186        0.0        0        
C1        C        0.5        0.685186        0.0        0        
C1        C        0.583333        0.685186        0.0        0        
C1        C        0.666667        0.685186        0.0        0        
C1        C        0.75        0.685186        0.0        0        
C1        C        0.833333        0.685186        0.0        0        
C1        C        0.916667        0.685186        0.0        0        
C2        C        0.041667        0.740741        0.0        0        
C2        C        0.125        0.740741        0.0        0        
C2        C        0.208333        0.740741        0.0        0        
C2        C        0.291667        0.740741        0.0        0        
C2        C        0.375        0.740741        0.0        0        
C2        C        0.458333        0.740741        0.0        0        
C2        C        0.541667        0.740741        0.0        0        
C2        C        0.625        0.740741        0.0        0        
C2        C        0.708333        0.740741        0.0        0        
C2        C        0.7916670000000001        0.740741        0.0        0        
C2        C        0.875        0.740741        0.0        0        
C2        C        0.958333        0.740741        0.0        0        
C3        C        0.0        0.759259        0.0        0        
C3        C        0.083333        0.759259        0.0        0        
C3        C        0.166667        0.759259        0.0        0        
C3        C        0.25        0.759259        0.0        0        
C3        C        0.333333        0.759259        0.0        0        
C3        C        0.416667        0.759259        0.0        0        
C3        C        0.5        0.759259        0.0        0        
C3        C        0.583333        0.759259        0.0        0        
C3        C        0.666667        0.759259        0.0        0        
C3        C        0.75        0.759259        0.0        0        
C3        C        0.833333        0.759259        0.0        0        
C3        C        0.916667        0.759259        0.0        0        
C4        C        0.041667        0.703703        0.0        0        
C4        C        0.125        0.703703        0.0        0        
C4        C        0.208333        0.703703        0.0        0        
C4        C        0.291667        0.703703        0.0        0        
C4        C        0.375        0.703703        0.0        0        
C4        C        0.458333        0.703703        0.0        0        
C4        C        0.541667        0.703703        0.0        0        
C4        C        0.625        0.703703        0.0        0        
C4        C        0.708333        0.703703        0.0        0        
C4        C        0.7916670000000001        0.703703        0.0        0        
C4        C        0.875        0.703703        0.0        0        
C4        C        0.958333        0.703703        0.0        0        
C1        C        0.0        0.796297        0.0        0        
C1        C        0.083333        0.796297        0.0        0        
C1        C        0.166667        0.796297        0.0        0        
C1        C        0.25        0.796297        0.0        0        
C1        C        0.333333        0.796297        0.0        0        
C1        C        0.416667        0.796297        0.0        0        
C1        C        0.5        0.796297        0.0        0        
C1        C        0.583333        0.796297        0.0        0        
C1        C        0.666667        0.796297        0.0        0        
C1        C        0.75        0.796297        0.0        0        
C1        C        0.833333        0.796297        0.0        0        
C1        C        0.916667        0.796297        0.0        0        
C2        C        0.041667        0.851852        0.0        0        
C2        C        0.125        0.851852        0.0        0        
C2        C        0.208333        0.851852        0.0        0        
C2        C        0.291667        0.851852        0.0        0        
C2        C        0.375        0.851852        0.0        0        
C2        C        0.458333        0.851852        0.0        0        
C2        C        0.541667        0.851852        0.0        0        
C2        C        0.625        0.851852        0.0        0        
C2        C        0.708333        0.851852        0.0        0        
C2        C        0.7916670000000001        0.851852        0.0        0        
C2        C        0.875        0.851852        0.0        0        
C2        C        0.958333        0.851852        0.0        0        
C3        C        0.0        0.87037        0.0        0        
C3        C        0.083333        0.87037        0.0        0        
C3        C        0.166667        0.87037        0.0        0        
C3        C        0.25        0.87037        0.0        0        
C3        C        0.333333        0.87037        0.0        0        
C3        C        0.416667        0.87037        0.0        0        
C3        C        0.5        0.87037        0.0        0        
C3        C        0.583333        0.87037        0.0        0        
C3        C        0.666667        0.87037        0.0        0        
C3        C        0.75        0.87037        0.0        0        
C3        C        0.833333        0.87037        0.0        0        
C3        C        0.916667        0.87037        0.0        0        
C4        C        0.041667        0.814814        0.0        0        
C4        C        0.125        0.814814        0.0        0        
C4        C        0.208333        0.814814        0.0        0        
C4        C        0.291667        0.814814        0.0        0        
C4        C        0.375        0.814814        0.0        0        
C4        C        0.458333        0.814814        0.0        0        
C4        C        0.541667        0.814814        0.0        0        
C4        C        0.625        0.814814        0.0        0        
C4        C        0.708333        0.814814        0.0        0        
C4        C        0.7916670000000001        0.814814        0.0        0        
C4        C        0.875        0.814814        0.0        0        
C4        C        0.958333        0.814814        0.0        0        
C1        C        0.0        0.907408        0.0        0        
C1        C        0.083333        0.907408        0.0        0        
C1        C        0.166667        0.907408        0.0        0        
C1        C        0.25        0.907408        0.0        0        
C1        C        0.333333        0.907408        0.0        0        
C1        C        0.416667        0.907408        0.0        0        
C1        C        0.5        0.907408        0.0        0        
C1        C        0.583333        0.907408        0.0        0        
C1        C        0.666667        0.907408        0.0        0        
C1        C        0.75        0.907408        0.0        0        
C1        C        0.833333        0.907408        0.0        0        
C1        C        0.916667        0.907408        0.0        0        
C2        C        0.041667        0.962963        0.0        0        
C2        C        0.125        0.962963        0.0        0        
C2        C        0.208333        0.962963        0.0        0        
C2        C        0.291667        0.962963        0.0        0        
C2        C        0.375        0.962963        0.0        0        
C2        C        0.458333        0.962963        0.0        0        
C2        C        0.541667        0.962963        0.0        0        
C2        C        0.625        0.962963        0.0        0        
C2        C        0.708333        0.962963        0.0        0        
C2        C        0.7916670000000001        0.962963        0.0        0        
C2        C        0.875        0.962963        0.0        0        
C2        C        0.958333        0.962963        0.0        0        
C3        C        0.0        0.9814809999999999        0.0        0        
C3        C        0.083333        0.9814809999999999        0.0        0        
C3        C        0.166667        0.9814809999999999        0.0        0        
C3        C        0.25        0.9814809999999999        0.0        0        
C3        C        0.333333        0.9814809999999999        0.0        0        
C3        C        0.416667        0.9814809999999999        0.0        0        
C3        C        0.5        0.9814809999999999        0.0        0        
C3        C        0.583333        0.9814809999999999        0.0        0        
C3        C        0.666667        0.9814809999999999        0.0        0        
C3        C        0.75        0.9814809999999999        0.0        0        
C3        C        0.833333        0.9814809999999999        0.0        0        
C3        C        0.916667        0.9814809999999999        0.0        0        
C4        C        0.041667        0.925925        0.0        0        
C4        C        0.125        0.925925        0.0        0        
C4        C        0.208333        0.925925        0.0        0        
C4        C        0.291667        0.925925        0.0        0        
C4        C        0.375        0.925925        0.0        0        
C4        C        0.458333        0.925925        0.0        0        
C4        C        0.541667        0.925925        0.0        0        
C4        C        0.625        0.925925        0.0        0        
C4        C        0.708333        0.925925        0.0        0        
C4        C        0.7916670000000001        0.925925        0.0        0        
C4        C        0.875        0.925925        0.0        0        
C4        C        0.958333        0.925925        0.0        0        
C1        C        0.0        0.018519        0.115917        0        
C2        C        0.041667        0.074075        0.115917        0        
C3        C        0.0        0.092592        0.115917        0        
C4        C        0.041667        0.037037        0.115917        0        
C1        C        0.0        0.12963        0.115917        0        
C2        C        0.041667        0.185185        0.115917        0        
C3        C        0.0        0.203703        0.115917        0        
C4        C        0.041667        0.148148        0.115917        0        
C1        C        0.0        0.24074099999999998        0.115917        0        
C2        C        0.041667        0.296297        0.115917        0        
C3        C        0.0        0.314815        0.115917        0        
C4        C        0.041667        0.259259        0.115917        0        
C1        C        0.0        0.351852        0.115917        0        
C2        C        0.041667        0.407408        0.115917        0        
C3        C        0.0        0.42592500000000005        0.115917        0        
C4        C        0.041667        0.37037        0.115917        0        
C1        C        0.0        0.46296300000000007        0.115917        0        
C2        C        0.041667        0.518519        0.115917        0        
C3        C        0.0        0.537037        0.115917        0        
C4        C        0.041667        0.481481        0.115917        0        
C1        C        0.0        0.574075        0.115917        0        
C2        C        0.041667        0.62963        0.115917        0        
C3        C        0.0        0.648148        0.115917        0        
C4        C        0.041667        0.592592        0.115917        0        
C1        C        0.083333        0.018519        0.115917        0        
C2        C        0.125        0.074075        0.115917        0        
C3        C        0.083333        0.092592        0.115917        0        
C4        C        0.125        0.037037        0.115917        0        
C1        C        0.083333        0.12963        0.115917        0        
C2        C        0.125        0.185185        0.115917        0        
C3        C        0.083333        0.203703        0.115917        0        
C4        C        0.125        0.148148        0.115917        0        
C1        C        0.083333        0.24074099999999998        0.115917        0        
C2        C        0.125        0.296297        0.115917        0        
C3        C        0.083333        0.314815        0.115917        0        
C4        C        0.125        0.259259        0.115917        0        
C1        C        0.083333        0.351852        0.115917        0        
C2        C        0.125        0.407408        0.115917        0        
C3        C        0.083333        0.42592500000000005        0.115917        0        
C4        C        0.125        0.37037        0.115917        0        
C1        C        0.083333        0.46296300000000007        0.115917        0        
C2        C        0.125        0.518519        0.115917        0        
C3        C        0.083333        0.537037        0.115917        0        
C4        C        0.125        0.481481        0.115917        0        
C1        C        0.083333        0.574075        0.115917        0        
C2        C        0.125        0.62963        0.115917        0        
C3        C        0.083333        0.648148        0.115917        0        
C4        C        0.125        0.592592        0.115917        0        
C1        C        0.166667        0.018519        0.115917        0        
C2        C        0.208333        0.074075        0.115917        0        
C3        C        0.166667        0.092592        0.115917        0        
C4        C        0.208333        0.037037        0.115917        0        
C1        C        0.166667        0.12963        0.115917        0        
C2        C        0.208333        0.185185        0.115917        0        
C3        C        0.166667        0.203703        0.115917        0        
C4        C        0.208333        0.148148        0.115917        0        
C1        C        0.166667        0.24074099999999998        0.115917        0        
C2        C        0.208333        0.296297        0.115917        0        
C3        C        0.166667        0.314815        0.115917        0        
C4        C        0.208333        0.259259        0.115917        0        
C1        C        0.166667        0.351852        0.115917        0        
C2        C        0.208333        0.407408        0.115917        0        
C3        C        0.166667        0.42592500000000005        0.115917        0        
C4        C        0.208333        0.37037        0.115917        0        
C1        C        0.166667        0.46296300000000007        0.115917        0        
C2        C        0.208333        0.518519        0.115917        0        
C3        C        0.166667        0.537037        0.115917        0        
C4        C        0.208333        0.481481        0.115917        0        
C1        C        0.166667        0.574075        0.115917        0        
C2        C        0.208333        0.62963        0.115917        0        
C3        C        0.166667        0.648148        0.115917        0        
C4        C        0.208333        0.592592        0.115917        0        
C1        C        0.25        0.018519        0.115917        0        
C2        C        0.291667        0.074075        0.115917        0        
C3        C        0.25        0.092592        0.115917        0        
C4        C        0.291667        0.037037        0.115917        0        
C1        C        0.25        0.12963        0.115917        0        
C2        C        0.291667        0.185185        0.115917        0        
C3        C        0.25        0.203703        0.115917        0        
C4        C        0.291667        0.148148        0.115917        0        
C1        C        0.25        0.24074099999999998        0.115917        0        
C2        C        0.291667        0.296297        0.115917        0        
C3        C        0.25        0.314815        0.115917        0        
C4        C        0.291667        0.259259        0.115917        0        
C1        C        0.25        0.351852        0.115917        0        
C2        C        0.291667        0.407408        0.115917        0        
C3        C        0.25        0.42592500000000005        0.115917        0        
C4        C        0.291667        0.37037        0.115917        0        
C1        C        0.25        0.46296300000000007        0.115917        0        
C2        C        0.291667        0.518519        0.115917        0        
C3        C        0.25        0.537037        0.115917        0        
C4        C        0.291667        0.481481        0.115917        0        
C1        C        0.25        0.574075        0.115917        0        
C2        C        0.291667        0.62963        0.115917        0        
C3        C        0.25        0.648148        0.115917        0        
C4        C        0.291667        0.592592        0.115917        0        
C1        C        0.333333        0.018519        0.115917        0        
C2        C        0.375        0.074075        0.115917        0        
C3        C        0.333333        0.092592        0.115917        0        
C4        C        0.375        0.037037        0.115917        0        
C1        C        0.333333        0.12963        0.115917        0        
C2        C        0.375        0.185185        0.115917        0        
C3        C        0.333333        0.203703        0.115917        0        
C4        C        0.375        0.148148        0.115917        0        
C1        C        0.333333        0.24074099999999998        0.115917        0        
C2        C        0.375        0.296297        0.115917        0        
C3        C        0.333333        0.314815        0.115917        0        
C4        C        0.375        0.259259        0.115917        0        
C1        C        0.333333        0.351852        0.115917        0        
C2        C        0.375        0.407408        0.115917        0        
C3        C        0.333333        0.42592500000000005        0.115917        0        
C4        C        0.375        0.37037        0.115917        0        
C1        C        0.333333        0.46296300000000007        0.115917        0        
C2        C        0.375        0.518519        0.115917        0        
C3        C        0.333333        0.537037        0.115917        0        
C4        C        0.375        0.481481        0.115917        0        
C1        C        0.333333        0.574075        0.115917        0        
C2        C        0.375        0.62963        0.115917        0        
C3        C        0.333333        0.648148        0.115917        0        
C4        C        0.375        0.592592        0.115917        0        
C1        C        0.416667        0.018519        0.115917        0        
C2        C        0.458333        0.074075        0.115917        0        
C3        C        0.416667        0.092592        0.115917        0        
C4        C        0.458333        0.037037        0.115917        0        
C1        C        0.416667        0.12963        0.115917        0        
C2        C        0.458333        0.185185        0.115917        0        
C3        C        0.416667        0.203703        0.115917        0        
C4        C        0.458333        0.148148        0.115917        0        
C1        C        0.416667        0.24074099999999998        0.115917        0        
C2        C        0.458333        0.296297        0.115917        0        
C3        C        0.416667        0.314815        0.115917        0        
C4        C        0.458333        0.259259        0.115917        0        
C1        C        0.416667        0.351852        0.115917        0        
C2        C        0.458333        0.407408        0.115917        0        
C3        C        0.416667        0.42592500000000005        0.115917        0        
C4        C        0.458333        0.37037        0.115917        0        
C1        C        0.416667        0.46296300000000007        0.115917        0        
C2        C        0.458333        0.518519        0.115917        0        
C3        C        0.416667        0.537037        0.115917        0        
C4        C        0.458333        0.481481        0.115917        0        
C1        C        0.416667        0.574075        0.115917        0        
C2        C        0.458333        0.62963        0.115917        0        
C3        C        0.416667        0.648148        0.115917        0        
C4        C        0.458333        0.592592        0.115917        0        
C1        C        0.5        0.018519        0.115917        0        
C2        C        0.541667        0.074075        0.115917        0        
C3        C        0.5        0.092592        0.115917        0        
C4        C        0.541667        0.037037        0.115917        0        
C1        C        0.5        0.12963        0.115917        0        
C2        C        0.541667        0.185185        0.115917        0        
C3        C        0.5        0.203703        0.115917        0        
C4        C        0.541667        0.148148        0.115917        0        
C1        C        0.5        0.24074099999999998        0.115917        0        
C2        C        0.541667        0.296297        0.115917        0        
C3        C        0.5        0.314815        0.115917        0        
C4        C        0.541667        0.259259        0.115917        0        
C1        C        0.5        0.351852        0.115917        0        
C2        C        0.541667        0.407408        0.115917        0        
C3        C        0.5        0.42592500000000005        0.115917        0        
C4        C        0.541667        0.37037        0.115917        0        
C1        C        0.5        0.46296300000000007        0.115917        0        
C2        C        0.541667        0.518519        0.115917        0        
C3        C        0.5        0.537037        0.115917        0        
C4        C        0.541667        0.481481        0.115917        0        
C1        C        0.5        0.574075        0.115917        0        
C2        C        0.541667        0.62963        0.115917        0        
C3        C        0.5        0.648148        0.115917        0        
C4        C        0.541667        0.592592        0.115917        0        
C1        C        0.583333        0.018519        0.115917        0        
C2        C        0.625        0.074075        0.115917        0        
C3        C        0.583333        0.092592        0.115917        0        
C4        C        0.625        0.037037        0.115917        0        
C1        C        0.583333        0.12963        0.115917        0        
C2        C        0.625        0.185185        0.115917        0        
C3        C        0.583333        0.203703        0.115917        0        
C4        C        0.625        0.148148        0.115917        0        
C1        C        0.583333        0.24074099999999998        0.115917        0        
C2        C        0.625        0.296297        0.115917        0        
C3        C        0.583333        0.314815        0.115917        0        
C4        C        0.625        0.259259        0.115917        0        
C1        C        0.583333        0.351852        0.115917        0        
C2        C        0.625        0.407408        0.115917        0        
C3        C        0.583333        0.42592500000000005        0.115917        0        
C4        C        0.625        0.37037        0.115917        0        
C1        C        0.583333        0.46296300000000007        0.115917        0        
C2        C        0.625        0.518519        0.115917        0        
C3        C        0.583333        0.537037        0.115917        0        
C4        C        0.625        0.481481        0.115917        0        
C1        C        0.583333        0.574075        0.115917        0        
C2        C        0.625        0.62963        0.115917        0        
C3        C        0.583333        0.648148        0.115917        0        
C4        C        0.625        0.592592        0.115917        0        
C1        C        0.666667        0.018519        0.115917        0        
C2        C        0.708333        0.074075        0.115917        0        
C3        C        0.666667        0.092592        0.115917        0        
C4        C        0.708333        0.037037        0.115917        0        
C1        C        0.666667        0.12963        0.115917        0        
C2        C        0.708333        0.185185        0.115917        0        
C3        C        0.666667        0.203703        0.115917        0        
C4        C        0.708333        0.148148        0.115917        0        
C1        C        0.666667        0.24074099999999998        0.115917        0        
C2        C        0.708333        0.296297        0.115917        0        
C3        C        0.666667        0.314815        0.115917        0        
C4        C        0.708333        0.259259        0.115917        0        
C1        C        0.666667        0.351852        0.115917        0        
C2        C        0.708333        0.407408        0.115917        0        
C3        C        0.666667        0.42592500000000005        0.115917        0        
C4        C        0.708333        0.37037        0.115917        0        
C1        C        0.666667        0.46296300000000007        0.115917        0        
C2        C        0.708333        0.518519        0.115917        0        
C3        C        0.666667        0.537037        0.115917        0        
C4        C        0.708333        0.481481        0.115917        0        
C1        C        0.666667        0.574075        0.115917        0        
C2        C        0.708333        0.62963        0.115917        0        
C3        C        0.666667        0.648148        0.115917        0        
C4        C        0.708333        0.592592        0.115917        0        
C1        C        0.75        0.018519        0.115917        0        
C2        C        0.7916670000000001        0.074075        0.115917        0        
C3        C        0.75        0.092592        0.115917        0        
C4        C        0.7916670000000001        0.037037        0.115917        0        
C1        C        0.75        0.12963        0.115917        0        
C2        C        0.7916670000000001        0.185185        0.115917        0        
C3        C        0.75        0.203703        0.115917        0        
C4        C        0.7916670000000001        0.148148        0.115917        0        
C1        C        0.75        0.24074099999999998        0.115917        0        
C2        C        0.7916670000000001        0.296297        0.115917        0        
C3        C        0.75        0.314815        0.115917        0        
C4        C        0.7916670000000001        0.259259        0.115917        0        
C1        C        0.75        0.351852        0.115917        0        
C2        C        0.7916670000000001        0.407408        0.115917        0        
C3        C        0.75        0.42592500000000005        0.115917        0        
C4        C        0.7916670000000001        0.37037        0.115917        0        
C1        C        0.75        0.46296300000000007        0.115917        0        
C2        C        0.7916670000000001        0.518519        0.115917        0        
C3        C        0.75        0.537037        0.115917        0        
C4        C        0.7916670000000001        0.481481        0.115917        0        
C1        C        0.75        0.574075        0.115917        0        
C2        C        0.7916670000000001        0.62963        0.115917        0        
C3        C        0.75        0.648148        0.115917        0        
C4        C        0.7916670000000001        0.592592        0.115917        0        
C1        C        0.833333        0.018519        0.115917        0        
C2        C        0.875        0.074075        0.115917        0        
C3        C        0.833333        0.092592        0.115917        0        
C4        C        0.875        0.037037        0.115917        0        
C1        C        0.833333        0.12963        0.115917        0        
C2        C        0.875        0.185185        0.115917        0        
C3        C        0.833333        0.203703        0.115917        0        
C4        C        0.875        0.148148        0.115917        0        
C1        C        0.833333        0.24074099999999998        0.115917        0        
C2        C        0.875        0.296297        0.115917        0        
C3        C        0.833333        0.314815        0.115917        0        
C4        C        0.875        0.259259        0.115917        0        
C1        C        0.833333        0.351852        0.115917        0        
C2        C        0.875        0.407408        0.115917        0        
C3        C        0.833333        0.42592500000000005        0.115917        0        
C4        C        0.875        0.37037        0.115917        0        
C1        C        0.833333        0.46296300000000007        0.115917        0        
C2        C        0.875        0.518519        0.115917        0        
C3        C        0.833333        0.537037        0.115917        0        
C4        C        0.875        0.481481        0.115917        0        
C1        C        0.833333        0.574075        0.115917        0        
C2        C        0.875        0.62963        0.115917        0        
C3        C        0.833333        0.648148        0.115917        0        
C4        C        0.875        0.592592        0.115917        0        
C1        C        0.916667        0.018519        0.115917        0        
C2        C        0.958333        0.074075        0.115917        0        
C3        C        0.916667        0.092592        0.115917        0        
C4        C        0.958333        0.037037        0.115917        0        
C1        C        0.916667        0.12963        0.115917        0        
C2        C        0.958333        0.185185        0.115917        0        
C3        C        0.916667        0.203703        0.115917        0        
C4        C        0.958333        0.148148        0.115917        0        
C1        C        0.916667        0.24074099999999998        0.115917        0        
C2        C        0.958333        0.296297        0.115917        0        
C3        C        0.916667        0.314815        0.115917        0        
C4        C        0.958333        0.259259        0.115917        0        
C1        C        0.916667        0.351852        0.115917        0        
C2        C        0.958333        0.407408        0.115917        0        
C3        C        0.916667        0.42592500000000005        0.115917        0        
C4        C        0.958333        0.37037        0.115917        0        
C1        C        0.916667        0.46296300000000007        0.115917        0        
C2        C        0.958333        0.518519        0.115917        0        
C3        C        0.916667        0.537037        0.115917        0        
C4        C        0.958333        0.481481        0.115917        0        
C1        C        0.916667        0.574075        0.115917        0        
C2        C        0.958333        0.62963        0.115917        0        
C3        C        0.916667        0.648148        0.115917        0        
C4        C        0.958333        0.592592        0.115917        0        
C1        C        0.0        0.685186        0.115917        0        
C1        C        0.083333        0.685186        0.115917        0        
C1        C        0.166667        0.685186        0.115917        0        
C1        C        0.25        0.685186        0.115917        0        
C1        C        0.333333        0.685186        0.115917        0        
C1        C        0.416667        0.685186        0.115917        0        
C1        C        0.5        0.685186        0.115917        0        
C1        C        0.583333        0.685186        0.115917        0        
C1        C        0.666667        0.685186        0.115917        0        
C1        C        0.75        0.685186        0.115917        0        
C1        C        0.833333        0.685186        0.115917        0        
C1        C        0.916667        0.685186        0.115917        0        
C2        C        0.041667        0.740741        0.115917        0        
C2        C        0.125        0.740741        0.115917        0        
C2        C        0.208333        0.740741        0.115917        0        
C2        C        0.291667        0.740741        0.115917        0        
C2        C        0.375        0.740741        0.115917        0        
C2        C        0.458333        0.740741        0.115917        0        
C2        C        0.541667        0.740741        0.115917        0        
C2        C        0.625        0.740741        0.115917        0        
C2        C        0.708333        0.740741        0.115917        0        
C2        C        0.7916670000000001        0.740741        0.115917        0        
C2        C        0.875        0.740741        0.115917        0        
C2        C        0.958333        0.740741        0.115917        0        
C3        C        0.0        0.759259        0.115917        0        
C3        C        0.083333        0.759259        0.115917        0        
C3        C        0.166667        0.759259        0.115917        0        
C3        C        0.25        0.759259        0.115917        0        
C3        C        0.333333        0.759259        0.115917        0        
C3        C        0.416667        0.759259        0.115917        0        
C3        C        0.5        0.759259        0.115917        0        
C3        C        0.583333        0.759259        0.115917        0        
C3        C        0.666667        0.759259        0.115917        0        
C3        C        0.75        0.759259        0.115917        0        
C3        C        0.833333        0.759259        0.115917        0        
C3        C        0.916667        0.759259        0.115917        0        
C4        C        0.041667        0.703703        0.115917        0        
C4        C        0.125        0.703703        0.115917        0        
C4        C        0.208333        0.703703        0.115917        0        
C4        C        0.291667        0.703703        0.115917        0        
C4        C        0.375        0.703703        0.115917        0        
C4        C        0.458333        0.703703        0.115917        0        
C4        C        0.541667        0.703703        0.115917        0        
C4        C        0.625        0.703703        0.115917        0        
C4        C        0.708333        0.703703        0.115917        0        
C4        C        0.7916670000000001        0.703703        0.115917        0        
C4        C        0.875        0.703703        0.115917        0        
C4        C        0.958333        0.703703        0.115917        0        
C1        C        0.0        0.796297        0.115917        0        
C1        C        0.083333        0.796297        0.115917        0        
C1        C        0.166667        0.796297        0.115917        0        
C1        C        0.25        0.796297        0.115917        0        
C1        C        0.333333        0.796297        0.115917        0        
C1        C        0.416667        0.796297        0.115917        0        
C1        C        0.5        0.796297        0.115917        0        
C1        C        0.583333        0.796297        0.115917        0        
C1        C        0.666667        0.796297        0.115917        0        
C1        C        0.75        0.796297        0.115917        0        
C1        C        0.833333        0.796297        0.115917        0        
C1        C        0.916667        0.796297        0.115917        0        
C2        C        0.041667        0.851852        0.115917        0        
C2        C        0.125        0.851852        0.115917        0        
C2        C        0.208333        0.851852        0.115917        0        
C2        C        0.291667        0.851852        0.115917        0        
C2        C        0.375        0.851852        0.115917        0        
C2        C        0.458333        0.851852        0.115917        0        
C2        C        0.541667        0.851852        0.115917        0        
C2        C        0.625        0.851852        0.115917        0        
C2        C        0.708333        0.851852        0.115917        0        
C2        C        0.7916670000000001        0.851852        0.115917        0        
C2        C        0.875        0.851852        0.115917        0        
C2        C        0.958333        0.851852        0.115917        0        
C3        C        0.0        0.87037        0.115917        0        
C3        C        0.083333        0.87037        0.115917        0        
C3        C        0.166667        0.87037        0.115917        0        
C3        C        0.25        0.87037        0.115917        0        
C3        C        0.333333        0.87037        0.115917        0        
C3        C        0.416667        0.87037        0.115917        0        
C3        C        0.5        0.87037        0.115917        0        
C3        C        0.583333        0.87037        0.115917        0        
C3        C        0.666667        0.87037        0.115917        0        
C3        C        0.75        0.87037        0.115917        0        
C3        C        0.833333        0.87037        0.115917        0        
C3        C        0.916667        0.87037        0.115917        0        
C4        C        0.041667        0.814814        0.115917        0        
C4        C        0.125        0.814814        0.115917        0        
C4        C        0.208333        0.814814        0.115917        0        
C4        C        0.291667        0.814814        0.115917        0        
C4        C        0.375        0.814814        0.115917        0        
C4        C        0.458333        0.814814        0.115917        0        
C4        C        0.541667        0.814814        0.115917        0        
C4        C        0.625        0.814814        0.115917        0        
C4        C        0.708333        0.814814        0.115917        0        
C4        C        0.7916670000000001        0.814814        0.115917        0        
C4        C        0.875        0.814814        0.115917        0        
C4        C        0.958333        0.814814        0.115917        0        
C1        C        0.0        0.907408        0.115917        0        
C1        C        0.083333        0.907408        0.115917        0        
C1        C        0.166667        0.907408        0.115917        0        
C1        C        0.25        0.907408        0.115917        0        
C1        C        0.333333        0.907408        0.115917        0        
C1        C        0.416667        0.907408        0.115917        0        
C1        C        0.5        0.907408        0.115917        0        
C1        C        0.583333        0.907408        0.115917        0        
C1        C        0.666667        0.907408        0.115917        0        
C1        C        0.75        0.907408        0.115917        0        
C1        C        0.833333        0.907408        0.115917        0        
C1        C        0.916667        0.907408        0.115917        0        
C2        C        0.041667        0.962963        0.115917        0        
C2        C        0.125        0.962963        0.115917        0        
C2        C        0.208333        0.962963        0.115917        0        
C2        C        0.291667        0.962963        0.115917        0        
C2        C        0.375        0.962963        0.115917        0        
C2        C        0.458333        0.962963        0.115917        0        
C2        C        0.541667        0.962963        0.115917        0        
C2        C        0.625        0.962963        0.115917        0        
C2        C        0.708333        0.962963        0.115917        0        
C2        C        0.7916670000000001        0.962963        0.115917        0        
C2        C        0.875        0.962963        0.115917        0        
C2        C        0.958333        0.962963        0.115917        0        
C3        C        0.0        0.9814809999999999        0.115917        0        
C3        C        0.083333        0.9814809999999999        0.115917        0        
C3        C        0.166667        0.9814809999999999        0.115917        0        
C3        C        0.25        0.9814809999999999        0.115917        0        
C3        C        0.333333        0.9814809999999999        0.115917        0        
C3        C        0.416667        0.9814809999999999        0.115917        0        
C3        C        0.5        0.9814809999999999        0.115917        0        
C3        C        0.583333        0.9814809999999999        0.115917        0        
C3        C        0.666667        0.9814809999999999        0.115917        0        
C3        C        0.75        0.9814809999999999        0.115917        0        
C3        C        0.833333        0.9814809999999999        0.115917        0        
C3        C        0.916667        0.9814809999999999        0.115917        0        
C4        C        0.041667        0.925925        0.115917        0        
C4        C        0.125        0.925925        0.115917        0        
C4        C        0.208333        0.925925        0.115917        0        
C4        C        0.291667        0.925925        0.115917        0        
C4        C        0.375        0.925925        0.115917        0        
C4        C        0.458333        0.925925        0.115917        0        
C4        C        0.541667        0.925925        0.115917        0        
C4        C        0.625        0.925925        0.115917        0        
C4        C        0.708333        0.925925        0.115917        0        
C4        C        0.7916670000000001        0.925925        0.115917        0        
C4        C        0.875        0.925925        0.115917        0        
C4        C        0.958333        0.925925        0.115917        0        
C_FG        C        0.0        0.018519        0.231834        0.2        
C2        C        0.041667        0.074075        0.231834        0        
C3        C        0.0        0.092592        0.231834        0        
C4        C        0.041667        0.037037        0.231834        0        
C_FG        C        0.0        0.12963        0.231834        0.2        
C2        C        0.041667        0.185185        0.231834        0        
C3        C        0.0        0.203703        0.231834        0        
C4        C        0.041667        0.148148        0.231834        0        
C_FG        C        0.0        0.24074099999999998        0.231834        0.2        
C2        C        0.041667        0.296297        0.231834        0        
C3        C        0.0        0.314815        0.231834        0        
C4        C        0.041667        0.259259        0.231834        0        
C_FG        C        0.0        0.351852        0.231834        0.2        
C2        C        0.041667        0.407408        0.231834        0        
C3        C        0.0        0.42592500000000005        0.231834        0        
C4        C        0.041667        0.37037        0.231834        0        
C_FG        C        0.0        0.46296300000000007        0.231834        0.2        
C2        C        0.041667        0.518519        0.231834        0        
C3        C        0.0        0.537037        0.231834        0        
C4        C        0.041667        0.481481        0.231834        0        
C_FG        C        0.0        0.574075        0.231834        0.2        
C2        C        0.041667        0.62963        0.231834        0        
C3        C        0.0        0.648148        0.231834        0        
C4        C        0.041667        0.592592        0.231834        0        
C1        C        0.083333        0.018519        0.231834        0        
C2        C        0.125        0.074075        0.231834        0        
C3        C        0.083333        0.092592        0.231834        0        
C4        C        0.125        0.037037        0.231834        0        
C1        C        0.083333        0.12963        0.231834        0        
C2        C        0.125        0.185185        0.231834        0        
C3        C        0.083333        0.203703        0.231834        0        
C4        C        0.125        0.148148        0.231834        0        
C1        C        0.083333        0.24074099999999998        0.231834        0        
C2        C        0.125        0.296297        0.231834        0        
C3        C        0.083333        0.314815        0.231834        0        
C4        C        0.125        0.259259        0.231834        0        
C1        C        0.083333        0.351852        0.231834        0        
C2        C        0.125        0.407408        0.231834        0        
C3        C        0.083333        0.42592500000000005        0.231834        0        
C4        C        0.125        0.37037        0.231834        0        
C1        C        0.083333        0.46296300000000007        0.231834        0        
C2        C        0.125        0.518519        0.231834        0        
C3        C        0.083333        0.537037        0.231834        0        
C4        C        0.125        0.481481        0.231834        0        
C1        C        0.083333        0.574075        0.231834        0        
C2        C        0.125        0.62963        0.231834        0        
C3        C        0.083333        0.648148        0.231834        0        
C4        C        0.125        0.592592        0.231834        0        
C_FG        C        0.166667        0.018519        0.231834        0.2        
C2        C        0.208333        0.074075        0.231834        0        
C3        C        0.166667        0.092592        0.231834        0        
C4        C        0.208333        0.037037        0.231834        0        
C_FG        C        0.166667        0.12963        0.231834        0.2        
C2        C        0.208333        0.185185        0.231834        0        
C3        C        0.166667        0.203703        0.231834        0        
C4        C        0.208333        0.148148        0.231834        0        
C_FG        C        0.166667        0.24074099999999998        0.231834        0.2        
C2        C        0.208333        0.296297        0.231834        0        
C3        C        0.166667        0.314815        0.231834        0        
C4        C        0.208333        0.259259        0.231834        0        
C_FG        C        0.166667        0.351852        0.231834        0.2        
C2        C        0.208333        0.407408        0.231834        0        
C3        C        0.166667        0.42592500000000005        0.231834        0        
C4        C        0.208333        0.37037        0.231834        0        
C_FG        C        0.166667        0.46296300000000007        0.231834        0.2        
C2        C        0.208333        0.518519        0.231834        0        
C3        C        0.166667        0.537037        0.231834        0        
C4        C        0.208333        0.481481        0.231834        0        
C_FG        C        0.166667        0.574075        0.231834        0.2        
C2        C        0.208333        0.62963        0.231834        0        
C3        C        0.166667        0.648148        0.231834        0        
C4        C        0.208333        0.592592        0.231834        0        
C1        C        0.25        0.018519        0.231834        0        
C2        C        0.291667        0.074075        0.231834        0        
C3        C        0.25        0.092592        0.231834        0        
C4        C        0.291667        0.037037        0.231834        0        
C1        C        0.25        0.12963        0.231834        0        
C2        C        0.291667        0.185185        0.231834        0        
C3        C        0.25        0.203703        0.231834        0        
C4        C        0.291667        0.148148        0.231834        0        
C1        C        0.25        0.24074099999999998        0.231834        0        
C2        C        0.291667        0.296297        0.231834        0        
C3        C        0.25        0.314815        0.231834        0        
C4        C        0.291667        0.259259        0.231834        0        
C1        C        0.25        0.351852        0.231834        0        
C2        C        0.291667        0.407408        0.231834        0        
C3        C        0.25        0.42592500000000005        0.231834        0        
C4        C        0.291667        0.37037        0.231834        0        
C1        C        0.25        0.46296300000000007        0.231834        0        
C2        C        0.291667        0.518519        0.231834        0        
C3        C        0.25        0.537037        0.231834        0        
C4        C        0.291667        0.481481        0.231834        0        
C1        C        0.25        0.574075        0.231834        0        
C2        C        0.291667        0.62963        0.231834        0        
C3        C        0.25        0.648148        0.231834        0        
C4        C        0.291667        0.592592        0.231834        0        
C1        C        0.333333        0.018519        0.231834        0        
C2        C        0.375        0.074075        0.231834        0        
C3        C        0.333333        0.092592        0.231834        0        
C4        C        0.375        0.037037        0.231834        0        
C1        C        0.333333        0.12963        0.231834        0        
C2        C        0.375        0.185185        0.231834        0        
C3        C        0.333333        0.203703        0.231834        0        
C4        C        0.375        0.148148        0.231834        0        
C1        C        0.333333        0.24074099999999998        0.231834        0        
C2        C        0.375        0.296297        0.231834        0        
C3        C        0.333333        0.314815        0.231834        0        
C4        C        0.375        0.259259        0.231834        0        
C1        C        0.333333        0.351852        0.231834        0        
C2        C        0.375        0.407408        0.231834        0        
C3        C        0.333333        0.42592500000000005        0.231834        0        
C4        C        0.375        0.37037        0.231834        0        
C1        C        0.333333        0.46296300000000007        0.231834        0        
C2        C        0.375        0.518519        0.231834        0        
C3        C        0.333333        0.537037        0.231834        0        
C4        C        0.375        0.481481        0.231834        0        
C1        C        0.333333        0.574075        0.231834        0        
C2        C        0.375        0.62963        0.231834        0        
C3        C        0.333333        0.648148        0.231834        0        
C4        C        0.375        0.592592        0.231834        0        
C1        C        0.416667        0.018519        0.231834        0        
C2        C        0.458333        0.074075        0.231834        0        
C3        C        0.416667        0.092592        0.231834        0        
C4        C        0.458333        0.037037        0.231834        0        
C1        C        0.416667        0.12963        0.231834        0        
C2        C        0.458333        0.185185        0.231834        0        
C3        C        0.416667        0.203703        0.231834        0        
C4        C        0.458333        0.148148        0.231834        0        
C1        C        0.416667        0.24074099999999998        0.231834        0        
C2        C        0.458333        0.296297        0.231834        0        
C3        C        0.416667        0.314815        0.231834        0        
C4        C        0.458333        0.259259        0.231834        0        
C1        C        0.416667        0.351852        0.231834        0        
C2        C        0.458333        0.407408        0.231834        0        
C3        C        0.416667        0.42592500000000005        0.231834        0        
C4        C        0.458333        0.37037        0.231834        0        
C1        C        0.416667        0.46296300000000007        0.231834        0        
C2        C        0.458333        0.518519        0.231834        0        
C3        C        0.416667        0.537037        0.231834        0        
C4        C        0.458333        0.481481        0.231834        0        
C1        C        0.416667        0.574075        0.231834        0        
C2        C        0.458333        0.62963        0.231834        0        
C3        C        0.416667        0.648148        0.231834        0        
C4        C        0.458333        0.592592        0.231834        0        
C1        C        0.5        0.018519        0.231834        0        
C2        C        0.541667        0.074075        0.231834        0        
C3        C        0.5        0.092592        0.231834        0        
C4        C        0.541667        0.037037        0.231834        0        
C1        C        0.5        0.12963        0.231834        0        
C2        C        0.541667        0.185185        0.231834        0        
C3        C        0.5        0.203703        0.231834        0        
C4        C        0.541667        0.148148        0.231834        0        
C1        C        0.5        0.24074099999999998        0.231834        0        
C2        C        0.541667        0.296297        0.231834        0        
C3        C        0.5        0.314815        0.231834        0        
C4        C        0.541667        0.259259        0.231834        0        
C1        C        0.5        0.351852        0.231834        0        
C2        C        0.541667        0.407408        0.231834        0        
C3        C        0.5        0.42592500000000005        0.231834        0        
C4        C        0.541667        0.37037        0.231834        0        
C1        C        0.5        0.46296300000000007        0.231834        0        
C2        C        0.541667        0.518519        0.231834        0        
C3        C        0.5        0.537037        0.231834        0        
C4        C        0.541667        0.481481        0.231834        0        
C1        C        0.5        0.574075        0.231834        0        
C2        C        0.541667        0.62963        0.231834        0        
C3        C        0.5        0.648148        0.231834        0        
C4        C        0.541667        0.592592        0.231834        0        
C1        C        0.583333        0.018519        0.231834        0        
C2        C        0.625        0.074075        0.231834        0        
C3        C        0.583333        0.092592        0.231834        0        
C4        C        0.625        0.037037        0.231834        0        
C1        C        0.583333        0.12963        0.231834        0        
C2        C        0.625        0.185185        0.231834        0        
C3        C        0.583333        0.203703        0.231834        0        
C4        C        0.625        0.148148        0.231834        0        
C1        C        0.583333        0.24074099999999998        0.231834        0        
C2        C        0.625        0.296297        0.231834        0        
C3        C        0.583333        0.314815        0.231834        0        
C4        C        0.625        0.259259        0.231834        0        
C1        C        0.583333        0.351852        0.231834        0        
C2        C        0.625        0.407408        0.231834        0        
C3        C        0.583333        0.42592500000000005        0.231834        0        
C4        C        0.625        0.37037        0.231834        0        
C1        C        0.583333        0.46296300000000007        0.231834        0        
C2        C        0.625        0.518519        0.231834        0        
C3        C        0.583333        0.537037        0.231834        0        
C4        C        0.625        0.481481        0.231834        0        
C1        C        0.583333        0.574075        0.231834        0        
C2        C        0.625        0.62963        0.231834        0        
C3        C        0.583333        0.648148        0.231834        0        
C4        C        0.625        0.592592        0.231834        0        
C1        C        0.666667        0.018519        0.231834        0        
C2        C        0.708333        0.074075        0.231834        0        
C3        C        0.666667        0.092592        0.231834        0        
C4        C        0.708333        0.037037        0.231834        0        
C1        C        0.666667        0.12963        0.231834        0        
C2        C        0.708333        0.185185        0.231834        0        
C3        C        0.666667        0.203703        0.231834        0        
C4        C        0.708333        0.148148        0.231834        0        
C1        C        0.666667        0.24074099999999998        0.231834        0        
C2        C        0.708333        0.296297        0.231834        0        
C3        C        0.666667        0.314815        0.231834        0        
C4        C        0.708333        0.259259        0.231834        0        
C1        C        0.666667        0.351852        0.231834        0        
C2        C        0.708333        0.407408        0.231834        0        
C3        C        0.666667        0.42592500000000005        0.231834        0        
C4        C        0.708333        0.37037        0.231834        0        
C1        C        0.666667        0.46296300000000007        0.231834        0        
C2        C        0.708333        0.518519        0.231834        0        
C3        C        0.666667        0.537037        0.231834        0        
C4        C        0.708333        0.481481        0.231834        0        
C1        C        0.666667        0.574075        0.231834        0        
C2        C        0.708333        0.62963        0.231834        0        
C3        C        0.666667        0.648148        0.231834        0        
C4        C        0.708333        0.592592        0.231834        0        
C_FG        C        0.75        0.018519        0.231834        0.2        
C2        C        0.7916670000000001        0.074075        0.231834        0        
C3        C        0.75        0.092592        0.231834        0        
C4        C        0.7916670000000001        0.037037        0.231834        0        
C_FG        C        0.75        0.12963        0.231834        0.2        
C2        C        0.7916670000000001        0.185185        0.231834        0        
C3        C        0.75        0.203703        0.231834        0        
C4        C        0.7916670000000001        0.148148        0.231834        0        
C_FG        C        0.75        0.24074099999999998        0.231834        0.2        
C2        C        0.7916670000000001        0.296297        0.231834        0        
C3        C        0.75        0.314815        0.231834        0        
C4        C        0.7916670000000001        0.259259        0.231834        0        
C_FG        C        0.75        0.351852        0.231834        0.2        
C2        C        0.7916670000000001        0.407408        0.231834        0        
C3        C        0.75        0.42592500000000005        0.231834        0        
C4        C        0.7916670000000001        0.37037        0.231834        0        
C_FG        C        0.75        0.46296300000000007        0.231834        0.2        
C2        C        0.7916670000000001        0.518519        0.231834        0        
C3        C        0.75        0.537037        0.231834        0        
C4        C        0.7916670000000001        0.481481        0.231834        0        
C_FG        C        0.75        0.574075        0.231834        0.2        
C2        C        0.7916670000000001        0.62963        0.231834        0        
C3        C        0.75        0.648148        0.231834        0        
C4        C        0.7916670000000001        0.592592        0.231834        0        
C1        C        0.833333        0.018519        0.231834        0        
C2        C        0.875        0.074075        0.231834        0        
C3        C        0.833333        0.092592        0.231834        0        
C4        C        0.875        0.037037        0.231834        0        
C1        C        0.833333        0.12963        0.231834        0        
C2        C        0.875        0.185185        0.231834        0        
C3        C        0.833333        0.203703        0.231834        0        
C4        C        0.875        0.148148        0.231834        0        
C1        C        0.833333        0.24074099999999998        0.231834        0        
C2        C        0.875        0.296297        0.231834        0        
C3        C        0.833333        0.314815        0.231834        0        
C4        C        0.875        0.259259        0.231834        0        
C1        C        0.833333        0.351852        0.231834        0        
C2        C        0.875        0.407408        0.231834        0        
C3        C        0.833333        0.42592500000000005        0.231834        0        
C4        C        0.875        0.37037        0.231834        0        
C1        C        0.833333        0.46296300000000007        0.231834        0        
C2        C        0.875        0.518519        0.231834        0        
C3        C        0.833333        0.537037        0.231834        0        
C4        C        0.875        0.481481        0.231834        0        
C1        C        0.833333        0.574075        0.231834        0        
C2        C        0.875        0.62963        0.231834        0        
C3        C        0.833333        0.648148        0.231834        0        
C4        C        0.875        0.592592        0.231834        0        
C_FG        C        0.916667        0.018519        0.231834        0.2        
C2        C        0.958333        0.074075        0.231834        0        
C3        C        0.916667        0.092592        0.231834        0        
C4        C        0.958333        0.037037        0.231834        0        
C_FG        C        0.916667        0.12963        0.231834        0.2        
C2        C        0.958333        0.185185        0.231834        0        
C3        C        0.916667        0.203703        0.231834        0        
C4        C        0.958333        0.148148        0.231834        0        
C_FG        C        0.916667        0.24074099999999998        0.231834        0.2        
C2        C        0.958333        0.296297        0.231834        0        
C3        C        0.916667        0.314815        0.231834        0        
C4        C        0.958333        0.259259        0.231834        0        
C_FG        C        0.916667        0.351852        0.231834        0.2        
C2        C        0.958333        0.407408        0.231834        0        
C3        C        0.916667        0.42592500000000005        0.231834        0        
C4        C        0.958333        0.37037        0.231834        0        
C_FG        C        0.916667        0.46296300000000007        0.231834        0.2        
C2        C        0.958333        0.518519        0.231834        0        
C3        C        0.916667        0.537037        0.231834        0        
C4        C        0.958333        0.481481        0.231834        0        
C_FG        C        0.916667        0.574075        0.231834        0.2        
C2        C        0.958333        0.62963        0.231834        0        
C3        C        0.916667        0.648148        0.231834        0        
C4        C        0.958333        0.592592        0.231834        0        
C_FG        C        0.0        0.685186        0.231834        0.2        
C1        C        0.083333        0.685186        0.231834        0        
C_FG        C        0.166667        0.685186        0.231834        0.2        
C1        C        0.25        0.685186        0.231834        0        
C1        C        0.333333        0.685186        0.231834        0        
C1        C        0.416667        0.685186        0.231834        0        
C1        C        0.5        0.685186        0.231834        0        
C1        C        0.583333        0.685186        0.231834        0        
C1        C        0.666667        0.685186        0.231834        0        
C_FG        C        0.75        0.685186        0.231834        0.2        
C1        C        0.833333        0.685186        0.231834        0        
C_FG        C        0.916667        0.685186        0.231834        0.2        
C2        C        0.041667        0.740741        0.231834        0        
C2        C        0.125        0.740741        0.231834        0        
C2        C        0.208333        0.740741        0.231834        0        
C2        C        0.291667        0.740741        0.231834        0        
C2        C        0.375        0.740741        0.231834        0        
C2        C        0.458333        0.740741        0.231834        0        
C2        C        0.541667        0.740741        0.231834        0        
C2        C        0.625        0.740741        0.231834        0        
C2        C        0.708333        0.740741        0.231834        0        
C2        C        0.7916670000000001        0.740741        0.231834        0        
C2        C        0.875        0.740741        0.231834        0        
C2        C        0.958333        0.740741        0.231834        0        
C3        C        0.0        0.759259        0.231834        0        
C3        C        0.083333        0.759259        0.231834        0        
C3        C        0.166667        0.759259        0.231834        0        
C3        C        0.25        0.759259        0.231834        0        
C3        C        0.333333        0.759259        0.231834        0        
C3        C        0.416667        0.759259        0.231834        0        
C3        C        0.5        0.759259        0.231834        0        
C3        C        0.583333        0.759259        0.231834        0        
C3        C        0.666667        0.759259        0.231834        0        
C3        C        0.75        0.759259        0.231834        0        
C3        C        0.833333        0.759259        0.231834        0        
C3        C        0.916667        0.759259        0.231834        0        
C4        C        0.041667        0.703703        0.231834        0        
C4        C        0.125        0.703703        0.231834        0        
C4        C        0.208333        0.703703        0.231834        0        
C4        C        0.291667        0.703703        0.231834        0        
C4        C        0.375        0.703703        0.231834        0        
C4        C        0.458333        0.703703        0.231834        0        
C4        C        0.541667        0.703703        0.231834        0        
C4        C        0.625        0.703703        0.231834        0        
C4        C        0.708333        0.703703        0.231834        0        
C4        C        0.7916670000000001        0.703703        0.231834        0        
C4        C        0.875        0.703703        0.231834        0        
C4        C        0.958333        0.703703        0.231834        0        
C_FG        C        0.0        0.796297        0.231834        0.2        
C1        C        0.083333        0.796297        0.231834        0        
C_FG        C        0.166667        0.796297        0.231834        0.2        
C1        C        0.25        0.796297        0.231834        0        
C1        C        0.333333        0.796297        0.231834        0        
C1        C        0.416667        0.796297        0.231834        0        
C1        C        0.5        0.796297        0.231834        0        
C1        C        0.583333        0.796297        0.231834        0        
C1        C        0.666667        0.796297        0.231834        0        
C_FG        C        0.75        0.796297        0.231834        0.2        
C1        C        0.833333        0.796297        0.231834        0        
C_FG        C        0.916667        0.796297        0.231834        0.2        
C2        C        0.041667        0.851852        0.231834        0        
C2        C        0.125        0.851852        0.231834        0        
C2        C        0.208333        0.851852        0.231834        0        
C2        C        0.291667        0.851852        0.231834        0        
C2        C        0.375        0.851852        0.231834        0        
C2        C        0.458333        0.851852        0.231834        0        
C2        C        0.541667        0.851852        0.231834        0        
C2        C        0.625        0.851852        0.231834        0        
C2        C        0.708333        0.851852        0.231834        0        
C2        C        0.7916670000000001        0.851852        0.231834        0        
C2        C        0.875        0.851852        0.231834        0        
C2        C        0.958333        0.851852        0.231834        0        
C3        C        0.0        0.87037        0.231834        0        
C3        C        0.083333        0.87037        0.231834        0        
C3        C        0.166667        0.87037        0.231834        0        
C3        C        0.25        0.87037        0.231834        0        
C3        C        0.333333        0.87037        0.231834        0        
C3        C        0.416667        0.87037        0.231834        0        
C3        C        0.5        0.87037        0.231834        0        
C3        C        0.583333        0.87037        0.231834        0        
C3        C        0.666667        0.87037        0.231834        0        
C3        C        0.75        0.87037        0.231834        0        
C3        C        0.833333        0.87037        0.231834        0        
C3        C        0.916667        0.87037        0.231834        0        
C4        C        0.041667        0.814814        0.231834        0        
C4        C        0.125        0.814814        0.231834        0        
C4        C        0.208333        0.814814        0.231834        0        
C4        C        0.291667        0.814814        0.231834        0        
C4        C        0.375        0.814814        0.231834        0        
C4        C        0.458333        0.814814        0.231834        0        
C4        C        0.541667        0.814814        0.231834        0        
C4        C        0.625        0.814814        0.231834        0        
C4        C        0.708333        0.814814        0.231834        0        
C4        C        0.7916670000000001        0.814814        0.231834        0        
C4        C        0.875        0.814814        0.231834        0        
C4        C        0.958333        0.814814        0.231834        0        
C_FG        C        0.0        0.907408        0.231834        0.2        
C1        C        0.083333        0.907408        0.231834        0        
C_FG        C        0.166667        0.907408        0.231834        0.2        
C1        C        0.25        0.907408        0.231834        0        
C1        C        0.333333        0.907408        0.231834        0        
C1        C        0.416667        0.907408        0.231834        0        
C1        C        0.5        0.907408        0.231834        0        
C1        C        0.583333        0.907408        0.231834        0        
C1        C        0.666667        0.907408        0.231834        0        
C_FG        C        0.75        0.907408        0.231834        0.2        
C1        C        0.833333        0.907408        0.231834        0        
C_FG        C        0.916667        0.907408        0.231834        0.2        
C2        C        0.041667        0.962963        0.231834        0        
C2        C        0.125        0.962963        0.231834        0        
C2        C        0.208333        0.962963        0.231834        0        
C2        C        0.291667        0.962963        0.231834        0        
C2        C        0.375        0.962963        0.231834        0        
C2        C        0.458333        0.962963        0.231834        0        
C2        C        0.541667        0.962963        0.231834        0        
C2        C        0.625        0.962963        0.231834        0        
C2        C        0.708333        0.962963        0.231834        0        
C2        C        0.7916670000000001        0.962963        0.231834        0        
C2        C        0.875        0.962963        0.231834        0        
C2        C        0.958333        0.962963        0.231834        0        
C3        C        0.0        0.9814809999999999        0.231834        0        
C3        C        0.083333        0.9814809999999999        0.231834        0        
C3        C        0.166667        0.9814809999999999        0.231834        0        
C3        C        0.25        0.9814809999999999        0.231834        0        
C3        C        0.333333        0.9814809999999999        0.231834        0        
C3        C        0.416667        0.9814809999999999        0.231834        0        
C3        C        0.5        0.9814809999999999        0.231834        0        
C3        C        0.583333        0.9814809999999999        0.231834        0        
C3        C        0.666667        0.9814809999999999        0.231834        0        
C3        C        0.75        0.9814809999999999        0.231834        0        
C3        C        0.833333        0.9814809999999999        0.231834        0        
C3        C        0.916667        0.9814809999999999        0.231834        0        
C4        C        0.041667        0.925925        0.231834        0        
C4        C        0.125        0.925925        0.231834        0        
C4        C        0.208333        0.925925        0.231834        0        
C4        C        0.291667        0.925925        0.231834        0        
C4        C        0.375        0.925925        0.231834        0        
C4        C        0.458333        0.925925        0.231834        0        
C4        C        0.541667        0.925925        0.231834        0        
C4        C        0.625        0.925925        0.231834        0        
C4        C        0.708333        0.925925        0.231834        0        
C4        C        0.7916670000000001        0.925925        0.231834        0        
C4        C        0.875        0.925925        0.231834        0        
C4        C        0.958333        0.925925        0.231834        0        
C_FG        C        0.0        0.018519        0.768166        0.2        
C2        C        0.041667        0.074075        0.768166        0        
C3        C        0.0        0.092592        0.768166        0        
C4        C        0.041667        0.037037        0.768166        0        
C_FG        C        0.0        0.12963        0.768166        0.2        
C2        C        0.041667        0.185185        0.768166        0        
C3        C        0.0        0.203703        0.768166        0        
C4        C        0.041667        0.148148        0.768166        0        
C_FG        C        0.0        0.24074099999999998        0.768166        0.2        
C2        C        0.041667        0.296297        0.768166        0        
C3        C        0.0        0.314815        0.768166        0        
C4        C        0.041667        0.259259        0.768166        0        
C_FG        C        0.0        0.351852        0.768166        0.2        
C2        C        0.041667        0.407408        0.768166        0        
C3        C        0.0        0.42592500000000005        0.768166        0        
C4        C        0.041667        0.37037        0.768166        0        
C_FG        C        0.0        0.46296300000000007        0.768166        0.2        
C2        C        0.041667        0.518519        0.768166        0        
C3        C        0.0        0.537037        0.768166        0        
C4        C        0.041667        0.481481        0.768166        0        
C_FG        C        0.0        0.574075        0.768166        0.2        
C2        C        0.041667        0.62963        0.768166        0        
C3        C        0.0        0.648148        0.768166        0        
C4        C        0.041667        0.592592        0.768166        0        
C1        C        0.083333        0.018519        0.768166        0        
C2        C        0.125        0.074075        0.768166        0        
C3        C        0.083333        0.092592        0.768166        0        
C4        C        0.125        0.037037        0.768166        0        
C1        C        0.083333        0.12963        0.768166        0        
C2        C        0.125        0.185185        0.768166        0        
C3        C        0.083333        0.203703        0.768166        0        
C4        C        0.125        0.148148        0.768166        0        
C1        C        0.083333        0.24074099999999998        0.768166        0        
C2        C        0.125        0.296297        0.768166        0        
C3        C        0.083333        0.314815        0.768166        0        
C4        C        0.125        0.259259        0.768166        0        
C1        C        0.083333        0.351852        0.768166        0        
C2        C        0.125        0.407408        0.768166        0        
C3        C        0.083333        0.42592500000000005        0.768166        0        
C4        C        0.125        0.37037        0.768166        0        
C1        C        0.083333        0.46296300000000007        0.768166        0        
C2        C        0.125        0.518519        0.768166        0        
C3        C        0.083333        0.537037        0.768166        0        
C4        C        0.125        0.481481        0.768166        0        
C1        C        0.083333        0.574075        0.768166        0        
C2        C        0.125        0.62963        0.768166        0        
C3        C        0.083333        0.648148        0.768166        0        
C4        C        0.125        0.592592        0.768166        0        
C_FG        C        0.166667        0.018519        0.768166        0.2        
C2        C        0.208333        0.074075        0.768166        0        
C3        C        0.166667        0.092592        0.768166        0        
C4        C        0.208333        0.037037        0.768166        0        
C_FG        C        0.166667        0.12963        0.768166        0.2        
C2        C        0.208333        0.185185        0.768166        0        
C3        C        0.166667        0.203703        0.768166        0        
C4        C        0.208333        0.148148        0.768166        0        
C_FG        C        0.166667        0.24074099999999998        0.768166        0.2        
C2        C        0.208333        0.296297        0.768166        0        
C3        C        0.166667        0.314815        0.768166        0        
C4        C        0.208333        0.259259        0.768166        0        
C_FG        C        0.166667        0.351852        0.768166        0.2        
C2        C        0.208333        0.407408        0.768166        0        
C3        C        0.166667        0.42592500000000005        0.768166        0        
C4        C        0.208333        0.37037        0.768166        0        
C_FG        C        0.166667        0.46296300000000007        0.768166        0.2        
C2        C        0.208333        0.518519        0.768166        0        
C3        C        0.166667        0.537037        0.768166        0        
C4        C        0.208333        0.481481        0.768166        0        
C_FG        C        0.166667        0.574075        0.768166        0.2        
C2        C        0.208333        0.62963        0.768166        0        
C3        C        0.166667        0.648148        0.768166        0        
C4        C        0.208333        0.592592        0.768166        0        
C1        C        0.25        0.018519        0.768166        0        
C2        C        0.291667        0.074075        0.768166        0        
C3        C        0.25        0.092592        0.768166        0        
C4        C        0.291667        0.037037        0.768166        0        
C1        C        0.25        0.12963        0.768166        0        
C2        C        0.291667        0.185185        0.768166        0        
C3        C        0.25        0.203703        0.768166        0        
C4        C        0.291667        0.148148        0.768166        0        
C1        C        0.25        0.24074099999999998        0.768166        0        
C2        C        0.291667        0.296297        0.768166        0        
C3        C        0.25        0.314815        0.768166        0        
C4        C        0.291667        0.259259        0.768166        0        
C1        C        0.25        0.351852        0.768166        0        
C2        C        0.291667        0.407408        0.768166        0        
C3        C        0.25        0.42592500000000005        0.768166        0        
C4        C        0.291667        0.37037        0.768166        0        
C1        C        0.25        0.46296300000000007        0.768166        0        
C2        C        0.291667        0.518519        0.768166        0        
C3        C        0.25        0.537037        0.768166        0        
C4        C        0.291667        0.481481        0.768166        0        
C1        C        0.25        0.574075        0.768166        0        
C2        C        0.291667        0.62963        0.768166        0        
C3        C        0.25        0.648148        0.768166        0        
C4        C        0.291667        0.592592        0.768166        0        
C1        C        0.333333        0.018519        0.768166        0        
C2        C        0.375        0.074075        0.768166        0        
C3        C        0.333333        0.092592        0.768166        0        
C4        C        0.375        0.037037        0.768166        0        
C1        C        0.333333        0.12963        0.768166        0        
C2        C        0.375        0.185185        0.768166        0        
C3        C        0.333333        0.203703        0.768166        0        
C4        C        0.375        0.148148        0.768166        0        
C1        C        0.333333        0.24074099999999998        0.768166        0        
C2        C        0.375        0.296297        0.768166        0        
C3        C        0.333333        0.314815        0.768166        0        
C4        C        0.375        0.259259        0.768166        0        
C1        C        0.333333        0.351852        0.768166        0        
C2        C        0.375        0.407408        0.768166        0        
C3        C        0.333333        0.42592500000000005        0.768166        0        
C4        C        0.375        0.37037        0.768166        0        
C1        C        0.333333        0.46296300000000007        0.768166        0        
C2        C        0.375        0.518519        0.768166        0        
C3        C        0.333333        0.537037        0.768166        0        
C4        C        0.375        0.481481        0.768166        0        
C1        C        0.333333        0.574075        0.768166        0        
C2        C        0.375        0.62963        0.768166        0        
C3        C        0.333333        0.648148        0.768166        0        
C4        C        0.375        0.592592        0.768166        0        
C1        C        0.416667        0.018519        0.768166        0        
C2        C        0.458333        0.074075        0.768166        0        
C3        C        0.416667        0.092592        0.768166        0        
C4        C        0.458333        0.037037        0.768166        0        
C1        C        0.416667        0.12963        0.768166        0        
C2        C        0.458333        0.185185        0.768166        0        
C3        C        0.416667        0.203703        0.768166        0        
C4        C        0.458333        0.148148        0.768166        0        
C1        C        0.416667        0.24074099999999998        0.768166        0        
C2        C        0.458333        0.296297        0.768166        0        
C3        C        0.416667        0.314815        0.768166        0        
C4        C        0.458333        0.259259        0.768166        0        
C1        C        0.416667        0.351852        0.768166        0        
C2        C        0.458333        0.407408        0.768166        0        
C3        C        0.416667        0.42592500000000005        0.768166        0        
C4        C        0.458333        0.37037        0.768166        0        
C1        C        0.416667        0.46296300000000007        0.768166        0        
C2        C        0.458333        0.518519        0.768166        0        
C3        C        0.416667        0.537037        0.768166        0        
C4        C        0.458333        0.481481        0.768166        0        
C1        C        0.416667        0.574075        0.768166        0        
C2        C        0.458333        0.62963        0.768166        0        
C3        C        0.416667        0.648148        0.768166        0        
C4        C        0.458333        0.592592        0.768166        0        
C1        C        0.5        0.018519        0.768166        0        
C2        C        0.541667        0.074075        0.768166        0        
C3        C        0.5        0.092592        0.768166        0        
C4        C        0.541667        0.037037        0.768166        0        
C1        C        0.5        0.12963        0.768166        0        
C2        C        0.541667        0.185185        0.768166        0        
C3        C        0.5        0.203703        0.768166        0        
C4        C        0.541667        0.148148        0.768166        0        
C1        C        0.5        0.24074099999999998        0.768166        0        
C2        C        0.541667        0.296297        0.768166        0        
C3        C        0.5        0.314815        0.768166        0        
C4        C        0.541667        0.259259        0.768166        0        
C1        C        0.5        0.351852        0.768166        0        
C2        C        0.541667        0.407408        0.768166        0        
C3        C        0.5        0.42592500000000005        0.768166        0        
C4        C        0.541667        0.37037        0.768166        0        
C1        C        0.5        0.46296300000000007        0.768166        0        
C2        C        0.541667        0.518519        0.768166        0        
C3        C        0.5        0.537037        0.768166        0        
C4        C        0.541667        0.481481        0.768166        0        
C1        C        0.5        0.574075        0.768166        0        
C2        C        0.541667        0.62963        0.768166        0        
C3        C        0.5        0.648148        0.768166        0        
C4        C        0.541667        0.592592        0.768166        0        
C1        C        0.583333        0.018519        0.768166        0        
C2        C        0.625        0.074075        0.768166        0        
C3        C        0.583333        0.092592        0.768166        0        
C4        C        0.625        0.037037        0.768166        0        
C1        C        0.583333        0.12963        0.768166        0        
C2        C        0.625        0.185185        0.768166        0        
C3        C        0.583333        0.203703        0.768166        0        
C4        C        0.625        0.148148        0.768166        0        
C1        C        0.583333        0.24074099999999998        0.768166        0        
C2        C        0.625        0.296297        0.768166        0        
C3        C        0.583333        0.314815        0.768166        0        
C4        C        0.625        0.259259        0.768166        0        
C1        C        0.583333        0.351852        0.768166        0        
C2        C        0.625        0.407408        0.768166        0        
C3        C        0.583333        0.42592500000000005        0.768166        0        
C4        C        0.625        0.37037        0.768166        0        
C1        C        0.583333        0.46296300000000007        0.768166        0        
C2        C        0.625        0.518519        0.768166        0        
C3        C        0.583333        0.537037        0.768166        0        
C4        C        0.625        0.481481        0.768166        0        
C1        C        0.583333        0.574075        0.768166        0        
C2        C        0.625        0.62963        0.768166        0        
C3        C        0.583333        0.648148        0.768166        0        
C4        C        0.625        0.592592        0.768166        0        
C1        C        0.666667        0.018519        0.768166        0        
C2        C        0.708333        0.074075        0.768166        0        
C3        C        0.666667        0.092592        0.768166        0        
C4        C        0.708333        0.037037        0.768166        0        
C1        C        0.666667        0.12963        0.768166        0        
C2        C        0.708333        0.185185        0.768166        0        
C3        C        0.666667        0.203703        0.768166        0        
C4        C        0.708333        0.148148        0.768166        0        
C1        C        0.666667        0.24074099999999998        0.768166        0        
C2        C        0.708333        0.296297        0.768166        0        
C3        C        0.666667        0.314815        0.768166        0        
C4        C        0.708333        0.259259        0.768166        0        
C1        C        0.666667        0.351852        0.768166        0        
C2        C        0.708333        0.407408        0.768166        0        
C3        C        0.666667        0.42592500000000005        0.768166        0        
C4        C        0.708333        0.37037        0.768166        0        
C1        C        0.666667        0.46296300000000007        0.768166        0        
C2        C        0.708333        0.518519        0.768166        0        
C3        C        0.666667        0.537037        0.768166        0        
C4        C        0.708333        0.481481        0.768166        0        
C1        C        0.666667        0.574075        0.768166        0        
C2        C        0.708333        0.62963        0.768166        0        
C3        C        0.666667        0.648148        0.768166        0        
C4        C        0.708333        0.592592        0.768166        0        
C_FG        C        0.75        0.018519        0.768166        0.2        
C2        C        0.7916670000000001        0.074075        0.768166        0        
C3        C        0.75        0.092592        0.768166        0        
C4        C        0.7916670000000001        0.037037        0.768166        0        
C_FG        C        0.75        0.12963        0.768166        0.2        
C2        C        0.7916670000000001        0.185185        0.768166        0        
C3        C        0.75        0.203703        0.768166        0        
C4        C        0.7916670000000001        0.148148        0.768166        0        
C_FG        C        0.75        0.24074099999999998        0.768166        0.2        
C2        C        0.7916670000000001        0.296297        0.768166        0        
C3        C        0.75        0.314815        0.768166        0        
C4        C        0.7916670000000001        0.259259        0.768166        0        
C_FG        C        0.75        0.351852        0.768166        0.2        
C2        C        0.7916670000000001        0.407408        0.768166        0        
C3        C        0.75        0.42592500000000005        0.768166        0        
C4        C        0.7916670000000001        0.37037        0.768166        0        
C_FG        C        0.75        0.46296300000000007        0.768166        0.2        
C2        C        0.7916670000000001        0.518519        0.768166        0        
C3        C        0.75        0.537037        0.768166        0        
C4        C        0.7916670000000001        0.481481        0.768166        0        
C_FG        C        0.75        0.574075        0.768166        0.2        
C2        C        0.7916670000000001        0.62963        0.768166        0        
C3        C        0.75        0.648148        0.768166        0        
C4        C        0.7916670000000001        0.592592        0.768166        0        
C1        C        0.833333        0.018519        0.768166        0        
C2        C        0.875        0.074075        0.768166        0        
C3        C        0.833333        0.092592        0.768166        0        
C4        C        0.875        0.037037        0.768166        0        
C1        C        0.833333        0.12963        0.768166        0        
C2        C        0.875        0.185185        0.768166        0        
C3        C        0.833333        0.203703        0.768166        0        
C4        C        0.875        0.148148        0.768166        0        
C1        C        0.833333        0.24074099999999998        0.768166        0        
C2        C        0.875        0.296297        0.768166        0        
C3        C        0.833333        0.314815        0.768166        0        
C4        C        0.875        0.259259        0.768166        0        
C1        C        0.833333        0.351852        0.768166        0        
C2        C        0.875        0.407408        0.768166        0        
C3        C        0.833333        0.42592500000000005        0.768166        0        
C4        C        0.875        0.37037        0.768166        0        
C1        C        0.833333        0.46296300000000007        0.768166        0        
C2        C        0.875        0.518519        0.768166        0        
C3        C        0.833333        0.537037        0.768166        0        
C4        C        0.875        0.481481        0.768166        0        
C1        C        0.833333        0.574075        0.768166        0        
C2        C        0.875        0.62963        0.768166        0        
C3        C        0.833333        0.648148        0.768166        0        
C4        C        0.875        0.592592        0.768166        0        
C_FG        C        0.916667        0.018519        0.768166        0.2        
C2        C        0.958333        0.074075        0.768166        0        
C3        C        0.916667        0.092592        0.768166        0        
C4        C        0.958333        0.037037        0.768166        0        
C_FG        C        0.916667        0.12963        0.768166        0.2        
C2        C        0.958333        0.185185        0.768166        0        
C3        C        0.916667        0.203703        0.768166        0        
C4        C        0.958333        0.148148        0.768166        0        
C_FG        C        0.916667        0.24074099999999998        0.768166        0.2        
C2        C        0.958333        0.296297        0.768166        0        
C3        C        0.916667        0.314815        0.768166        0        
C4        C        0.958333        0.259259        0.768166        0        
C_FG        C        0.916667        0.351852        0.768166        0.2        
C2        C        0.958333        0.407408        0.768166        0        
C3        C        0.916667        0.42592500000000005        0.768166        0        
C4        C        0.958333        0.37037        0.768166        0        
C_FG        C        0.916667        0.46296300000000007        0.768166        0.2        
C2        C        0.958333        0.518519        0.768166        0        
C3        C        0.916667        0.537037        0.768166        0        
C4        C        0.958333        0.481481        0.768166        0        
C_FG        C        0.916667        0.574075        0.768166        0.2        
C2        C        0.958333        0.62963        0.768166        0        
C3        C        0.916667        0.648148        0.768166        0        
C4        C        0.958333        0.592592        0.768166        0        
C_FG        C        0.0        0.685186        0.768166        0.2        
C1        C        0.083333        0.685186        0.768166        0        
C_FG        C        0.166667        0.685186        0.768166        0.2        
C1        C        0.25        0.685186        0.768166        0        
C1        C        0.333333        0.685186        0.768166        0        
C1        C        0.416667        0.685186        0.768166        0        
C1        C        0.5        0.685186        0.768166        0        
C1        C        0.583333        0.685186        0.768166        0        
C1        C        0.666667        0.685186        0.768166        0        
C_FG        C        0.75        0.685186        0.768166        0.2        
C1        C        0.833333        0.685186        0.768166        0        
C_FG        C        0.916667        0.685186        0.768166        0.2        
C2        C        0.041667        0.740741        0.768166        0        
C2        C        0.125        0.740741        0.768166        0        
C2        C        0.208333        0.740741        0.768166        0        
C2        C        0.291667        0.740741        0.768166        0        
C2        C        0.375        0.740741        0.768166        0        
C2        C        0.458333        0.740741        0.768166        0        
C2        C        0.541667        0.740741        0.768166        0        
C2        C        0.625        0.740741        0.768166        0        
C2        C        0.708333        0.740741        0.768166        0        
C2        C        0.7916670000000001        0.740741        0.768166        0        
C2        C        0.875        0.740741        0.768166        0        
C2        C        0.958333        0.740741        0.768166        0        
C3        C        0.0        0.759259        0.768166        0        
C3        C        0.083333        0.759259        0.768166        0        
C3        C        0.166667        0.759259        0.768166        0        
C3        C        0.25        0.759259        0.768166        0        
C3        C        0.333333        0.759259        0.768166        0        
C3        C        0.416667        0.759259        0.768166        0        
C3        C        0.5        0.759259        0.768166        0        
C3        C        0.583333        0.759259        0.768166        0        
C3        C        0.666667        0.759259        0.768166        0        
C3        C        0.75        0.759259        0.768166        0        
C3        C        0.833333        0.759259        0.768166        0        
C3        C        0.916667        0.759259        0.768166        0        
C4        C        0.041667        0.703703        0.768166        0        
C4        C        0.125        0.703703        0.768166        0        
C4        C        0.208333        0.703703        0.768166        0        
C4        C        0.291667        0.703703        0.768166        0        
C4        C        0.375        0.703703        0.768166        0        
C4        C        0.458333        0.703703        0.768166        0        
C4        C        0.541667        0.703703        0.768166        0        
C4        C        0.625        0.703703        0.768166        0        
C4        C        0.708333        0.703703        0.768166        0        
C4        C        0.7916670000000001        0.703703        0.768166        0        
C4        C        0.875        0.703703        0.768166        0        
C4        C        0.958333        0.703703        0.768166        0        
C_FG        C        0.0        0.796297        0.768166        0.2        
C1        C        0.083333        0.796297        0.768166        0        
C_FG        C        0.166667        0.796297        0.768166        0.2        
C1        C        0.25        0.796297        0.768166        0        
C1        C        0.333333        0.796297        0.768166        0        
C1        C        0.416667        0.796297        0.768166        0        
C1        C        0.5        0.796297        0.768166        0        
C1        C        0.583333        0.796297        0.768166        0        
C1        C        0.666667        0.796297        0.768166        0        
C_FG        C        0.75        0.796297        0.768166        0.2        
C1        C        0.833333        0.796297        0.768166        0        
C_FG        C        0.916667        0.796297        0.768166        0.2        
C2        C        0.041667        0.851852        0.768166        0        
C2        C        0.125        0.851852        0.768166        0        
C2        C        0.208333        0.851852        0.768166        0        
C2        C        0.291667        0.851852        0.768166        0        
C2        C        0.375        0.851852        0.768166        0        
C2        C        0.458333        0.851852        0.768166        0        
C2        C        0.541667        0.851852        0.768166        0        
C2        C        0.625        0.851852        0.768166        0        
C2        C        0.708333        0.851852        0.768166        0        
C2        C        0.7916670000000001        0.851852        0.768166        0        
C2        C        0.875        0.851852        0.768166        0        
C2        C        0.958333        0.851852        0.768166        0        
C3        C        0.0        0.87037        0.768166        0        
C3        C        0.083333        0.87037        0.768166        0        
C3        C        0.166667        0.87037        0.768166        0        
C3        C        0.25        0.87037        0.768166        0        
C3        C        0.333333        0.87037        0.768166        0        
C3        C        0.416667        0.87037        0.768166        0        
C3        C        0.5        0.87037        0.768166        0        
C3        C        0.583333        0.87037        0.768166        0        
C3        C        0.666667        0.87037        0.768166        0        
C3        C        0.75        0.87037        0.768166        0        
C3        C        0.833333        0.87037        0.768166        0        
C3        C        0.916667        0.87037        0.768166        0        
C4        C        0.041667        0.814814        0.768166        0        
C4        C        0.125        0.814814        0.768166        0        
C4        C        0.208333        0.814814        0.768166        0        
C4        C        0.291667        0.814814        0.768166        0        
C4        C        0.375        0.814814        0.768166        0        
C4        C        0.458333        0.814814        0.768166        0        
C4        C        0.541667        0.814814        0.768166        0        
C4        C        0.625        0.814814        0.768166        0        
C4        C        0.708333        0.814814        0.768166        0        
C4        C        0.7916670000000001        0.814814        0.768166        0        
C4        C        0.875        0.814814        0.768166        0        
C4        C        0.958333        0.814814        0.768166        0        
C_FG        C        0.0        0.907408        0.768166        0.2        
C1        C        0.083333        0.907408        0.768166        0        
C_FG        C        0.166667        0.907408        0.768166        0.2        
C1        C        0.25        0.907408        0.768166        0        
C1        C        0.333333        0.907408        0.768166        0        
C1        C        0.416667        0.907408        0.768166        0        
C1        C        0.5        0.907408        0.768166        0        
C1        C        0.583333        0.907408        0.768166        0        
C1        C        0.666667        0.907408        0.768166        0        
C_FG        C        0.75        0.907408        0.768166        0.2        
C1        C        0.833333        0.907408        0.768166        0        
C_FG        C        0.916667        0.907408        0.768166        0.2        
C2        C        0.041667        0.962963        0.768166        0        
C2        C        0.125        0.962963        0.768166        0        
C2        C        0.208333        0.962963        0.768166        0        
C2        C        0.291667        0.962963        0.768166        0        
C2        C        0.375        0.962963        0.768166        0        
C2        C        0.458333        0.962963        0.768166        0        
C2        C        0.541667        0.962963        0.768166        0        
C2        C        0.625        0.962963        0.768166        0        
C2        C        0.708333        0.962963        0.768166        0        
C2        C        0.7916670000000001        0.962963        0.768166        0        
C2        C        0.875        0.962963        0.768166        0        
C2        C        0.958333        0.962963        0.768166        0        
C3        C        0.0        0.9814809999999999        0.768166        0        
C3        C        0.083333        0.9814809999999999        0.768166        0        
C3        C        0.166667        0.9814809999999999        0.768166        0        
C3        C        0.25        0.9814809999999999        0.768166        0        
C3        C        0.333333        0.9814809999999999        0.768166        0        
C3        C        0.416667        0.9814809999999999        0.768166        0        
C3        C        0.5        0.9814809999999999        0.768166        0        
C3        C        0.583333        0.9814809999999999        0.768166        0        
C3        C        0.666667        0.9814809999999999        0.768166        0        
C3        C        0.75        0.9814809999999999        0.768166        0        
C3        C        0.833333        0.9814809999999999        0.768166        0        
C3        C        0.916667        0.9814809999999999        0.768166        0        
C4        C        0.041667        0.925925        0.768166        0        
C4        C        0.125        0.925925        0.768166        0        
C4        C        0.208333        0.925925        0.768166        0        
C4        C        0.291667        0.925925        0.768166        0        
C4        C        0.375        0.925925        0.768166        0        
C4        C        0.458333        0.925925        0.768166        0        
C4        C        0.541667        0.925925        0.768166        0        
C4        C        0.625        0.925925        0.768166        0        
C4        C        0.708333        0.925925        0.768166        0        
C4        C        0.7916670000000001        0.925925        0.768166        0        
C4        C        0.875        0.925925        0.768166        0        
C4        C        0.958333        0.925925        0.768166        0        
C1        C        0.0        0.018519        0.884083        0        
C2        C        0.041667        0.074075        0.884083        0        
C3        C        0.0        0.092592        0.884083        0        
C4        C        0.041667        0.037037        0.884083        0        
C1        C        0.0        0.12963        0.884083        0        
C2        C        0.041667        0.185185        0.884083        0        
C3        C        0.0        0.203703        0.884083        0        
C4        C        0.041667        0.148148        0.884083        0        
C1        C        0.0        0.24074099999999998        0.884083        0        
C2        C        0.041667        0.296297        0.884083        0        
C3        C        0.0        0.314815        0.884083        0        
C4        C        0.041667        0.259259        0.884083        0        
C1        C        0.0        0.351852        0.884083        0        
C2        C        0.041667        0.407408        0.884083        0        
C3        C        0.0        0.42592500000000005        0.884083        0        
C4        C        0.041667        0.37037        0.884083        0        
C1        C        0.0        0.46296300000000007        0.884083        0        
C2        C        0.041667        0.518519        0.884083        0        
C3        C        0.0        0.537037        0.884083        0        
C4        C        0.041667        0.481481        0.884083        0        
C1        C        0.0        0.574075        0.884083        0        
C2        C        0.041667        0.62963        0.884083        0        
C3        C        0.0        0.648148        0.884083        0        
C4        C        0.041667        0.592592        0.884083        0        
C1        C        0.083333        0.018519        0.884083        0        
C2        C        0.125        0.074075        0.884083        0        
C3        C        0.083333        0.092592        0.884083        0        
C4        C        0.125        0.037037        0.884083        0        
C1        C        0.083333        0.12963        0.884083        0        
C2        C        0.125        0.185185        0.884083        0        
C3        C        0.083333        0.203703        0.884083        0        
C4        C        0.125        0.148148        0.884083        0        
C1        C        0.083333        0.24074099999999998        0.884083        0        
C2        C        0.125        0.296297        0.884083        0        
C3        C        0.083333        0.314815        0.884083        0        
C4        C        0.125        0.259259        0.884083        0        
C1        C        0.083333        0.351852        0.884083        0        
C2        C        0.125        0.407408        0.884083        0        
C3        C        0.083333        0.42592500000000005        0.884083        0        
C4        C        0.125        0.37037        0.884083        0        
C1        C        0.083333        0.46296300000000007        0.884083        0        
C2        C        0.125        0.518519        0.884083        0        
C3        C        0.083333        0.537037        0.884083        0        
C4        C        0.125        0.481481        0.884083        0        
C1        C        0.083333        0.574075        0.884083        0        
C2        C        0.125        0.62963        0.884083        0        
C3        C        0.083333        0.648148        0.884083        0        
C4        C        0.125        0.592592        0.884083        0        
C1        C        0.166667        0.018519        0.884083        0        
C2        C        0.208333        0.074075        0.884083        0        
C3        C        0.166667        0.092592        0.884083        0        
C4        C        0.208333        0.037037        0.884083        0        
C1        C        0.166667        0.12963        0.884083        0        
C2        C        0.208333        0.185185        0.884083        0        
C3        C        0.166667        0.203703        0.884083        0        
C4        C        0.208333        0.148148        0.884083        0        
C1        C        0.166667        0.24074099999999998        0.884083        0        
C2        C        0.208333        0.296297        0.884083        0        
C3        C        0.166667        0.314815        0.884083        0        
C4        C        0.208333        0.259259        0.884083        0        
C1        C        0.166667        0.351852        0.884083        0        
C2        C        0.208333        0.407408        0.884083        0        
C3        C        0.166667        0.42592500000000005        0.884083        0        
C4        C        0.208333        0.37037        0.884083        0        
C1        C        0.166667        0.46296300000000007        0.884083        0        
C2        C        0.208333        0.518519        0.884083        0        
C3        C        0.166667        0.537037        0.884083        0        
C4        C        0.208333        0.481481        0.884083        0        
C1        C        0.166667        0.574075        0.884083        0        
C2        C        0.208333        0.62963        0.884083        0        
C3        C        0.166667        0.648148        0.884083        0        
C4        C        0.208333        0.592592        0.884083        0        
C1        C        0.25        0.018519        0.884083        0        
C2        C        0.291667        0.074075        0.884083        0        
C3        C        0.25        0.092592        0.884083        0        
C4        C        0.291667        0.037037        0.884083        0        
C1        C        0.25        0.12963        0.884083        0        
C2        C        0.291667        0.185185        0.884083        0        
C3        C        0.25        0.203703        0.884083        0        
C4        C        0.291667        0.148148        0.884083        0        
C1        C        0.25        0.24074099999999998        0.884083        0        
C2        C        0.291667        0.296297        0.884083        0        
C3        C        0.25        0.314815        0.884083        0        
C4        C        0.291667        0.259259        0.884083        0        
C1        C        0.25        0.351852        0.884083        0        
C2        C        0.291667        0.407408        0.884083        0        
C3        C        0.25        0.42592500000000005        0.884083        0        
C4        C        0.291667        0.37037        0.884083        0        
C1        C        0.25        0.46296300000000007        0.884083        0        
C2        C        0.291667        0.518519        0.884083        0        
C3        C        0.25        0.537037        0.884083        0        
C4        C        0.291667        0.481481        0.884083        0        
C1        C        0.25        0.574075        0.884083        0        
C2        C        0.291667        0.62963        0.884083        0        
C3        C        0.25        0.648148        0.884083        0        
C4        C        0.291667        0.592592        0.884083        0        
C1        C        0.333333        0.018519        0.884083        0        
C2        C        0.375        0.074075        0.884083        0        
C3        C        0.333333        0.092592        0.884083        0        
C4        C        0.375        0.037037        0.884083        0        
C1        C        0.333333        0.12963        0.884083        0        
C2        C        0.375        0.185185        0.884083        0        
C3        C        0.333333        0.203703        0.884083        0        
C4        C        0.375        0.148148        0.884083        0        
C1        C        0.333333        0.24074099999999998        0.884083        0        
C2        C        0.375        0.296297        0.884083        0        
C3        C        0.333333        0.314815        0.884083        0        
C4        C        0.375        0.259259        0.884083        0        
C1        C        0.333333        0.351852        0.884083        0        
C2        C        0.375        0.407408        0.884083        0        
C3        C        0.333333        0.42592500000000005        0.884083        0        
C4        C        0.375        0.37037        0.884083        0        
C1        C        0.333333        0.46296300000000007        0.884083        0        
C2        C        0.375        0.518519        0.884083        0        
C3        C        0.333333        0.537037        0.884083        0        
C4        C        0.375        0.481481        0.884083        0        
C1        C        0.333333        0.574075        0.884083        0        
C2        C        0.375        0.62963        0.884083        0        
C3        C        0.333333        0.648148        0.884083        0        
C4        C        0.375        0.592592        0.884083        0        
C1        C        0.416667        0.018519        0.884083        0        
C2        C        0.458333        0.074075        0.884083        0        
C3        C        0.416667        0.092592        0.884083        0        
C4        C        0.458333        0.037037        0.884083        0        
C1        C        0.416667        0.12963        0.884083        0        
C2        C        0.458333        0.185185        0.884083        0        
C3        C        0.416667        0.203703        0.884083        0        
C4        C        0.458333        0.148148        0.884083        0        
C1        C        0.416667        0.24074099999999998        0.884083        0        
C2        C        0.458333        0.296297        0.884083        0        
C3        C        0.416667        0.314815        0.884083        0        
C4        C        0.458333        0.259259        0.884083        0        
C1        C        0.416667        0.351852        0.884083        0        
C2        C        0.458333        0.407408        0.884083        0        
C3        C        0.416667        0.42592500000000005        0.884083        0        
C4        C        0.458333        0.37037        0.884083        0        
C1        C        0.416667        0.46296300000000007        0.884083        0        
C2        C        0.458333        0.518519        0.884083        0        
C3        C        0.416667        0.537037        0.884083        0        
C4        C        0.458333        0.481481        0.884083        0        
C1        C        0.416667        0.574075        0.884083        0        
C2        C        0.458333        0.62963        0.884083        0        
C3        C        0.416667        0.648148        0.884083        0        
C4        C        0.458333        0.592592        0.884083        0        
C1        C        0.5        0.018519        0.884083        0        
C2        C        0.541667        0.074075        0.884083        0        
C3        C        0.5        0.092592        0.884083        0        
C4        C        0.541667        0.037037        0.884083        0        
C1        C        0.5        0.12963        0.884083        0        
C2        C        0.541667        0.185185        0.884083        0        
C3        C        0.5        0.203703        0.884083        0        
C4        C        0.541667        0.148148        0.884083        0        
C1        C        0.5        0.24074099999999998        0.884083        0        
C2        C        0.541667        0.296297        0.884083        0        
C3        C        0.5        0.314815        0.884083        0        
C4        C        0.541667        0.259259        0.884083        0        
C1        C        0.5        0.351852        0.884083        0        
C2        C        0.541667        0.407408        0.884083        0        
C3        C        0.5        0.42592500000000005        0.884083        0        
C4        C        0.541667        0.37037        0.884083        0        
C1        C        0.5        0.46296300000000007        0.884083        0        
C2        C        0.541667        0.518519        0.884083        0        
C3        C        0.5        0.537037        0.884083        0        
C4        C        0.541667        0.481481        0.884083        0        
C1        C        0.5        0.574075        0.884083        0        
C2        C        0.541667        0.62963        0.884083        0        
C3        C        0.5        0.648148        0.884083        0        
C4        C        0.541667        0.592592        0.884083        0        
C1        C        0.583333        0.018519        0.884083        0        
C2        C        0.625        0.074075        0.884083        0        
C3        C        0.583333        0.092592        0.884083        0        
C4        C        0.625        0.037037        0.884083        0        
C1        C        0.583333        0.12963        0.884083        0        
C2        C        0.625        0.185185        0.884083        0        
C3        C        0.583333        0.203703        0.884083        0        
C4        C        0.625        0.148148        0.884083        0        
C1        C        0.583333        0.24074099999999998        0.884083        0        
C2        C        0.625        0.296297        0.884083        0        
C3        C        0.583333        0.314815        0.884083        0        
C4        C        0.625        0.259259        0.884083        0        
C1        C        0.583333        0.351852        0.884083        0        
C2        C        0.625        0.407408        0.884083        0        
C3        C        0.583333        0.42592500000000005        0.884083        0        
C4        C        0.625        0.37037        0.884083        0        
C1        C        0.583333        0.46296300000000007        0.884083        0        
C2        C        0.625        0.518519        0.884083        0        
C3        C        0.583333        0.537037        0.884083        0        
C4        C        0.625        0.481481        0.884083        0        
C1        C        0.583333        0.574075        0.884083        0        
C2        C        0.625        0.62963        0.884083        0        
C3        C        0.583333        0.648148        0.884083        0        
C4        C        0.625        0.592592        0.884083        0        
C1        C        0.666667        0.018519        0.884083        0        
C2        C        0.708333        0.074075        0.884083        0        
C3        C        0.666667        0.092592        0.884083        0        
C4        C        0.708333        0.037037        0.884083        0        
C1        C        0.666667        0.12963        0.884083        0        
C2        C        0.708333        0.185185        0.884083        0        
C3        C        0.666667        0.203703        0.884083        0        
C4        C        0.708333        0.148148        0.884083        0        
C1        C        0.666667        0.24074099999999998        0.884083        0        
C2        C        0.708333        0.296297        0.884083        0        
C3        C        0.666667        0.314815        0.884083        0        
C4        C        0.708333        0.259259        0.884083        0        
C1        C        0.666667        0.351852        0.884083        0        
C2        C        0.708333        0.407408        0.884083        0        
C3        C        0.666667        0.42592500000000005        0.884083        0        
C4        C        0.708333        0.37037        0.884083        0        
C1        C        0.666667        0.46296300000000007        0.884083        0        
C2        C        0.708333        0.518519        0.884083        0        
C3        C        0.666667        0.537037        0.884083        0        
C4        C        0.708333        0.481481        0.884083        0        
C1        C        0.666667        0.574075        0.884083        0        
C2        C        0.708333        0.62963        0.884083        0        
C3        C        0.666667        0.648148        0.884083        0        
C4        C        0.708333        0.592592        0.884083        0        
C1        C        0.75        0.018519        0.884083        0        
C2        C        0.7916670000000001        0.074075        0.884083        0        
C3        C        0.75        0.092592        0.884083        0        
C4        C        0.7916670000000001        0.037037        0.884083        0        
C1        C        0.75        0.12963        0.884083        0        
C2        C        0.7916670000000001        0.185185        0.884083        0        
C3        C        0.75        0.203703        0.884083        0        
C4        C        0.7916670000000001        0.148148        0.884083        0        
C1        C        0.75        0.24074099999999998        0.884083        0        
C2        C        0.7916670000000001        0.296297        0.884083        0        
C3        C        0.75        0.314815        0.884083        0        
C4        C        0.7916670000000001        0.259259        0.884083        0        
C1        C        0.75        0.351852        0.884083        0        
C2        C        0.7916670000000001        0.407408        0.884083        0        
C3        C        0.75        0.42592500000000005        0.884083        0        
C4        C        0.7916670000000001        0.37037        0.884083        0        
C1        C        0.75        0.46296300000000007        0.884083        0        
C2        C        0.7916670000000001        0.518519        0.884083        0        
C3        C        0.75        0.537037        0.884083        0        
C4        C        0.7916670000000001        0.481481        0.884083        0        
C1        C        0.75        0.574075        0.884083        0        
C2        C        0.7916670000000001        0.62963        0.884083        0        
C3        C        0.75        0.648148        0.884083        0        
C4        C        0.7916670000000001        0.592592        0.884083        0        
C1        C        0.833333        0.018519        0.884083        0        
C2        C        0.875        0.074075        0.884083        0        
C3        C        0.833333        0.092592        0.884083        0        
C4        C        0.875        0.037037        0.884083        0        
C1        C        0.833333        0.12963        0.884083        0        
C2        C        0.875        0.185185        0.884083        0        
C3        C        0.833333        0.203703        0.884083        0        
C4        C        0.875        0.148148        0.884083        0        
C1        C        0.833333        0.24074099999999998        0.884083        0        
C2        C        0.875        0.296297        0.884083        0        
C3        C        0.833333        0.314815        0.884083        0        
C4        C        0.875        0.259259        0.884083        0        
C1        C        0.833333        0.351852        0.884083        0        
C2        C        0.875        0.407408        0.884083        0        
C3        C        0.833333        0.42592500000000005        0.884083        0        
C4        C        0.875        0.37037        0.884083        0        
C1        C        0.833333        0.46296300000000007        0.884083        0        
C2        C        0.875        0.518519        0.884083        0        
C3        C        0.833333        0.537037        0.884083        0        
C4        C        0.875        0.481481        0.884083        0        
C1        C        0.833333        0.574075        0.884083        0        
C2        C        0.875        0.62963        0.884083        0        
C3        C        0.833333        0.648148        0.884083        0        
C4        C        0.875        0.592592        0.884083        0        
C1        C        0.916667        0.018519        0.884083        0        
C2        C        0.958333        0.074075        0.884083        0        
C3        C        0.916667        0.092592        0.884083        0        
C4        C        0.958333        0.037037        0.884083        0        
C1        C        0.916667        0.12963        0.884083        0        
C2        C        0.958333        0.185185        0.884083        0        
C3        C        0.916667        0.203703        0.884083        0        
C4        C        0.958333        0.148148        0.884083        0        
C1        C        0.916667        0.24074099999999998        0.884083        0        
C2        C        0.958333        0.296297        0.884083        0        
C3        C        0.916667        0.314815        0.884083        0        
C4        C        0.958333        0.259259        0.884083        0        
C1        C        0.916667        0.351852        0.884083        0        
C2        C        0.958333        0.407408        0.884083        0        
C3        C        0.916667        0.42592500000000005        0.884083        0        
C4        C        0.958333        0.37037        0.884083        0        
C1        C        0.916667        0.46296300000000007        0.884083        0        
C2        C        0.958333        0.518519        0.884083        0        
C3        C        0.916667        0.537037        0.884083        0        
C4        C        0.958333        0.481481        0.884083        0        
C1        C        0.916667        0.574075        0.884083        0        
C2        C        0.958333        0.62963        0.884083        0        
C3        C        0.916667        0.648148        0.884083        0        
C4        C        0.958333        0.592592        0.884083        0        
C1        C        0.0        0.685186        0.884083        0        
C1        C        0.083333        0.685186        0.884083        0        
C1        C        0.166667        0.685186        0.884083        0        
C1        C        0.25        0.685186        0.884083        0        
C1        C        0.333333        0.685186        0.884083        0        
C1        C        0.416667        0.685186        0.884083        0        
C1        C        0.5        0.685186        0.884083        0        
C1        C        0.583333        0.685186        0.884083        0        
C1        C        0.666667        0.685186        0.884083        0        
C1        C        0.75        0.685186        0.884083        0        
C1        C        0.833333        0.685186        0.884083        0        
C1        C        0.916667        0.685186        0.884083        0        
C2        C        0.041667        0.740741        0.884083        0        
C2        C        0.125        0.740741        0.884083        0        
C2        C        0.208333        0.740741        0.884083        0        
C2        C        0.291667        0.740741        0.884083        0        
C2        C        0.375        0.740741        0.884083        0        
C2        C        0.458333        0.740741        0.884083        0        
C2        C        0.541667        0.740741        0.884083        0        
C2        C        0.625        0.740741        0.884083        0        
C2        C        0.708333        0.740741        0.884083        0        
C2        C        0.7916670000000001        0.740741        0.884083        0        
C2        C        0.875        0.740741        0.884083        0        
C2        C        0.958333        0.740741        0.884083        0        
C3        C        0.0        0.759259        0.884083        0        
C3        C        0.083333        0.759259        0.884083        0        
C3        C        0.166667        0.759259        0.884083        0        
C3        C        0.25        0.759259        0.884083        0        
C3        C        0.333333        0.759259        0.884083        0        
C3        C        0.416667        0.759259        0.884083        0        
C3        C        0.5        0.759259        0.884083        0        
C3        C        0.583333        0.759259        0.884083        0        
C3        C        0.666667        0.759259        0.884083        0        
C3        C        0.75        0.759259        0.884083        0        
C3        C        0.833333        0.759259        0.884083        0        
C3        C        0.916667        0.759259        0.884083        0        
C4        C        0.041667        0.703703        0.884083        0        
C4        C        0.125        0.703703        0.884083        0        
C4        C        0.208333        0.703703        0.884083        0        
C4        C        0.291667        0.703703        0.884083        0        
C4        C        0.375        0.703703        0.884083        0        
C4        C        0.458333        0.703703        0.884083        0        
C4        C        0.541667        0.703703        0.884083        0        
C4        C        0.625        0.703703        0.884083        0        
C4        C        0.708333        0.703703        0.884083        0        
C4        C        0.7916670000000001        0.703703        0.884083        0        
C4        C        0.875        0.703703        0.884083        0        
C4        C        0.958333        0.703703        0.884083        0        
C1        C        0.0        0.796297        0.884083        0        
C1        C        0.083333        0.796297        0.884083        0        
C1        C        0.166667        0.796297        0.884083        0        
C1        C        0.25        0.796297        0.884083        0        
C1        C        0.333333        0.796297        0.884083        0        
C1        C        0.416667        0.796297        0.884083        0        
C1        C        0.5        0.796297        0.884083        0        
C1        C        0.583333        0.796297        0.884083        0        
C1        C        0.666667        0.796297        0.884083        0        
C1        C        0.75        0.796297        0.884083        0        
C1        C        0.833333        0.796297        0.884083        0        
C1        C        0.916667        0.796297        0.884083        0        
C2        C        0.041667        0.851852        0.884083        0        
C2        C        0.125        0.851852        0.884083        0        
C2        C        0.208333        0.851852        0.884083        0        
C2        C        0.291667        0.851852        0.884083        0        
C2        C        0.375        0.851852        0.884083        0        
C2        C        0.458333        0.851852        0.884083        0        
C2        C        0.541667        0.851852        0.884083        0        
C2        C        0.625        0.851852        0.884083        0        
C2        C        0.708333        0.851852        0.884083        0        
C2        C        0.7916670000000001        0.851852        0.884083        0        
C2        C        0.875        0.851852        0.884083        0        
C2        C        0.958333        0.851852        0.884083        0        
C3        C        0.0        0.87037        0.884083        0        
C3        C        0.083333        0.87037        0.884083        0        
C3        C        0.166667        0.87037        0.884083        0        
C3        C        0.25        0.87037        0.884083        0        
C3        C        0.333333        0.87037        0.884083        0        
C3        C        0.416667        0.87037        0.884083        0        
C3        C        0.5        0.87037        0.884083        0        
C3        C        0.583333        0.87037        0.884083        0        
C3        C        0.666667        0.87037        0.884083        0        
C3        C        0.75        0.87037        0.884083        0        
C3        C        0.833333        0.87037        0.884083        0        
C3        C        0.916667        0.87037        0.884083        0        
C4        C        0.041667        0.814814        0.884083        0        
C4        C        0.125        0.814814        0.884083        0        
C4        C        0.208333        0.814814        0.884083        0        
C4        C        0.291667        0.814814        0.884083        0        
C4        C        0.375        0.814814        0.884083        0        
C4        C        0.458333        0.814814        0.884083        0        
C4        C        0.541667        0.814814        0.884083        0        
C4        C        0.625        0.814814        0.884083        0        
C4        C        0.708333        0.814814        0.884083        0        
C4        C        0.7916670000000001        0.814814        0.884083        0        
C4        C        0.875        0.814814        0.884083        0        
C4        C        0.958333        0.814814        0.884083        0        
C1        C        0.0        0.907408        0.884083        0        
C1        C        0.083333        0.907408        0.884083        0        
C1        C        0.166667        0.907408        0.884083        0        
C1        C        0.25        0.907408        0.884083        0        
C1        C        0.333333        0.907408        0.884083        0        
C1        C        0.416667        0.907408        0.884083        0        
C1        C        0.5        0.907408        0.884083        0        
C1        C        0.583333        0.907408        0.884083        0        
C1        C        0.666667        0.907408        0.884083        0        
C1        C        0.75        0.907408        0.884083        0        
C1        C        0.833333        0.907408        0.884083        0        
C1        C        0.916667        0.907408        0.884083        0        
C2        C        0.041667        0.962963        0.884083        0        
C2        C        0.125        0.962963        0.884083        0        
C2        C        0.208333        0.962963        0.884083        0        
C2        C        0.291667        0.962963        0.884083        0        
C2        C        0.375        0.962963        0.884083        0        
C2        C        0.458333        0.962963        0.884083        0        
C2        C        0.541667        0.962963        0.884083        0        
C2        C        0.625        0.962963        0.884083        0        
C2        C        0.708333        0.962963        0.884083        0        
C2        C        0.7916670000000001        0.962963        0.884083        0        
C2        C        0.875        0.962963        0.884083        0        
C2        C        0.958333        0.962963        0.884083        0        
C3        C        0.0        0.9814809999999999        0.884083        0        
C3        C        0.083333        0.9814809999999999        0.884083        0        
C3        C        0.166667        0.9814809999999999        0.884083        0        
C3        C        0.25        0.9814809999999999        0.884083        0        
C3        C        0.333333        0.9814809999999999        0.884083        0        
C3        C        0.416667        0.9814809999999999        0.884083        0        
C3        C        0.5        0.9814809999999999        0.884083        0        
C3        C        0.583333        0.9814809999999999        0.884083        0        
C3        C        0.666667        0.9814809999999999        0.884083        0        
C3        C        0.75        0.9814809999999999        0.884083        0        
C3        C        0.833333        0.9814809999999999        0.884083        0        
C3        C        0.916667        0.9814809999999999        0.884083        0        
C4        C        0.041667        0.925925        0.884083        0        
C4        C        0.125        0.925925        0.884083        0        
C4        C        0.208333        0.925925        0.884083        0        
C4        C        0.291667        0.925925        0.884083        0        
C4        C        0.375        0.925925        0.884083        0        
C4        C        0.458333        0.925925        0.884083        0        
C4        C        0.541667        0.925925        0.884083        0        
C4        C        0.625        0.925925        0.884083        0        
C4        C        0.708333        0.925925        0.884083        0        
C4        C        0.7916670000000001        0.925925        0.884083        0        
C4        C        0.875        0.925925        0.884083        0        
C4        C        0.958333        0.925925        0.884083        0        
C1        C        0.0        0.018519        1.0        0        
C2        C        0.041667        0.074075        1.0        0        
C3        C        0.0        0.092592        1.0        0        
C4        C        0.041667        0.037037        1.0        0        
C1        C        0.0        0.12963        1.0        0        
C2        C        0.041667        0.185185        1.0        0        
C3        C        0.0        0.203703        1.0        0        
C4        C        0.041667        0.148148        1.0        0        
C1        C        0.0        0.24074099999999998        1.0        0        
C2        C        0.041667        0.296297        1.0        0        
C3        C        0.0        0.314815        1.0        0        
C4        C        0.041667        0.259259        1.0        0        
C1        C        0.0        0.351852        1.0        0        
C2        C        0.041667        0.407408        1.0        0        
C3        C        0.0        0.42592500000000005        1.0        0        
C4        C        0.041667        0.37037        1.0        0        
C1        C        0.0        0.46296300000000007        1.0        0        
C2        C        0.041667        0.518519        1.0        0        
C3        C        0.0        0.537037        1.0        0        
C4        C        0.041667        0.481481        1.0        0        
C1        C        0.0        0.574075        1.0        0        
C2        C        0.041667        0.62963        1.0        0        
C3        C        0.0        0.648148        1.0        0        
C4        C        0.041667        0.592592        1.0        0        
C1        C        0.083333        0.018519        1.0        0        
C2        C        0.125        0.074075        1.0        0        
C3        C        0.083333        0.092592        1.0        0        
C4        C        0.125        0.037037        1.0        0        
C1        C        0.083333        0.12963        1.0        0        
C2        C        0.125        0.185185        1.0        0        
C3        C        0.083333        0.203703        1.0        0        
C4        C        0.125        0.148148        1.0        0        
C1        C        0.083333        0.24074099999999998        1.0        0        
C2        C        0.125        0.296297        1.0        0        
C3        C        0.083333        0.314815        1.0        0        
C4        C        0.125        0.259259        1.0        0        
C1        C        0.083333        0.351852        1.0        0        
C2        C        0.125        0.407408        1.0        0        
C3        C        0.083333        0.42592500000000005        1.0        0        
C4        C        0.125        0.37037        1.0        0        
C1        C        0.083333        0.46296300000000007        1.0        0        
C2        C        0.125        0.518519        1.0        0        
C3        C        0.083333        0.537037        1.0        0        
C4        C        0.125        0.481481        1.0        0        
C1        C        0.083333        0.574075        1.0        0        
C2        C        0.125        0.62963        1.0        0        
C3        C        0.083333        0.648148        1.0        0        
C4        C        0.125        0.592592        1.0        0        
C1        C        0.166667        0.018519        1.0        0        
C2        C        0.208333        0.074075        1.0        0        
C3        C        0.166667        0.092592        1.0        0        
C4        C        0.208333        0.037037        1.0        0        
C1        C        0.166667        0.12963        1.0        0        
C2        C        0.208333        0.185185        1.0        0        
C3        C        0.166667        0.203703        1.0        0        
C4        C        0.208333        0.148148        1.0        0        
C1        C        0.166667        0.24074099999999998        1.0        0        
C2        C        0.208333        0.296297        1.0        0        
C3        C        0.166667        0.314815        1.0        0        
C4        C        0.208333        0.259259        1.0        0        
C1        C        0.166667        0.351852        1.0        0        
C2        C        0.208333        0.407408        1.0        0        
C3        C        0.166667        0.42592500000000005        1.0        0        
C4        C        0.208333        0.37037        1.0        0        
C1        C        0.166667        0.46296300000000007        1.0        0        
C2        C        0.208333        0.518519        1.0        0        
C3        C        0.166667        0.537037        1.0        0        
C4        C        0.208333        0.481481        1.0        0        
C1        C        0.166667        0.574075        1.0        0        
C2        C        0.208333        0.62963        1.0        0        
C3        C        0.166667        0.648148        1.0        0        
C4        C        0.208333        0.592592        1.0        0        
C1        C        0.25        0.018519        1.0        0        
C2        C        0.291667        0.074075        1.0        0        
C3        C        0.25        0.092592        1.0        0        
C4        C        0.291667        0.037037        1.0        0        
C1        C        0.25        0.12963        1.0        0        
C2        C        0.291667        0.185185        1.0        0        
C3        C        0.25        0.203703        1.0        0        
C4        C        0.291667        0.148148        1.0        0        
C1        C        0.25        0.24074099999999998        1.0        0        
C2        C        0.291667        0.296297        1.0        0        
C3        C        0.25        0.314815        1.0        0        
C4        C        0.291667        0.259259        1.0        0        
C1        C        0.25        0.351852        1.0        0        
C2        C        0.291667        0.407408        1.0        0        
C3        C        0.25        0.42592500000000005        1.0        0        
C4        C        0.291667        0.37037        1.0        0        
C1        C        0.25        0.46296300000000007        1.0        0        
C2        C        0.291667        0.518519        1.0        0        
C3        C        0.25        0.537037        1.0        0        
C4        C        0.291667        0.481481        1.0        0        
C1        C        0.25        0.574075        1.0        0        
C2        C        0.291667        0.62963        1.0        0        
C3        C        0.25        0.648148        1.0        0        
C4        C        0.291667        0.592592        1.0        0        
C1        C        0.333333        0.018519        1.0        0        
C2        C        0.375        0.074075        1.0        0        
C3        C        0.333333        0.092592        1.0        0        
C4        C        0.375        0.037037        1.0        0        
C1        C        0.333333        0.12963        1.0        0        
C2        C        0.375        0.185185        1.0        0        
C3        C        0.333333        0.203703        1.0        0        
C4        C        0.375        0.148148        1.0        0        
C1        C        0.333333        0.24074099999999998        1.0        0        
C2        C        0.375        0.296297        1.0        0        
C3        C        0.333333        0.314815        1.0        0        
C4        C        0.375        0.259259        1.0        0        
C1        C        0.333333        0.351852        1.0        0        
C2        C        0.375        0.407408        1.0        0        
C3        C        0.333333        0.42592500000000005        1.0        0        
C4        C        0.375        0.37037        1.0        0        
C1        C        0.333333        0.46296300000000007        1.0        0        
C2        C        0.375        0.518519        1.0        0        
C3        C        0.333333        0.537037        1.0        0        
C4        C        0.375        0.481481        1.0        0        
C1        C        0.333333        0.574075        1.0        0        
C2        C        0.375        0.62963        1.0        0        
C3        C        0.333333        0.648148        1.0        0        
C4        C        0.375        0.592592        1.0        0        
C1        C        0.416667        0.018519        1.0        0        
C2        C        0.458333        0.074075        1.0        0        
C3        C        0.416667        0.092592        1.0        0        
C4        C        0.458333        0.037037        1.0        0        
C1        C        0.416667        0.12963        1.0        0        
C2        C        0.458333        0.185185        1.0        0        
C3        C        0.416667        0.203703        1.0        0        
C4        C        0.458333        0.148148        1.0        0        
C1        C        0.416667        0.24074099999999998        1.0        0        
C2        C        0.458333        0.296297        1.0        0        
C3        C        0.416667        0.314815        1.0        0        
C4        C        0.458333        0.259259        1.0        0        
C1        C        0.416667        0.351852        1.0        0        
C2        C        0.458333        0.407408        1.0        0        
C3        C        0.416667        0.42592500000000005        1.0        0        
C4        C        0.458333        0.37037        1.0        0        
C1        C        0.416667        0.46296300000000007        1.0        0        
C2        C        0.458333        0.518519        1.0        0        
C3        C        0.416667        0.537037        1.0        0        
C4        C        0.458333        0.481481        1.0        0        
C1        C        0.416667        0.574075        1.0        0        
C2        C        0.458333        0.62963        1.0        0        
C3        C        0.416667        0.648148        1.0        0        
C4        C        0.458333        0.592592        1.0        0        
C1        C        0.5        0.018519        1.0        0        
C2        C        0.541667        0.074075        1.0        0        
C3        C        0.5        0.092592        1.0        0        
C4        C        0.541667        0.037037        1.0        0        
C1        C        0.5        0.12963        1.0        0        
C2        C        0.541667        0.185185        1.0        0        
C3        C        0.5        0.203703        1.0        0        
C4        C        0.541667        0.148148        1.0        0        
C1        C        0.5        0.24074099999999998        1.0        0        
C2        C        0.541667        0.296297        1.0        0        
C3        C        0.5        0.314815        1.0        0        
C4        C        0.541667        0.259259        1.0        0        
C1        C        0.5        0.351852        1.0        0        
C2        C        0.541667        0.407408        1.0        0        
C3        C        0.5        0.42592500000000005        1.0        0        
C4        C        0.541667        0.37037        1.0        0        
C1        C        0.5        0.46296300000000007        1.0        0        
C2        C        0.541667        0.518519        1.0        0        
C3        C        0.5        0.537037        1.0        0        
C4        C        0.541667        0.481481        1.0        0        
C1        C        0.5        0.574075        1.0        0        
C2        C        0.541667        0.62963        1.0        0        
C3        C        0.5        0.648148        1.0        0        
C4        C        0.541667        0.592592        1.0        0        
C1        C        0.583333        0.018519        1.0        0        
C2        C        0.625        0.074075        1.0        0        
C3        C        0.583333        0.092592        1.0        0        
C4        C        0.625        0.037037        1.0        0        
C1        C        0.583333        0.12963        1.0        0        
C2        C        0.625        0.185185        1.0        0        
C3        C        0.583333        0.203703        1.0        0        
C4        C        0.625        0.148148        1.0        0        
C1        C        0.583333        0.24074099999999998        1.0        0        
C2        C        0.625        0.296297        1.0        0        
C3        C        0.583333        0.314815        1.0        0        
C4        C        0.625        0.259259        1.0        0        
C1        C        0.583333        0.351852        1.0        0        
C2        C        0.625        0.407408        1.0        0        
C3        C        0.583333        0.42592500000000005        1.0        0        
C4        C        0.625        0.37037        1.0        0        
C1        C        0.583333        0.46296300000000007        1.0        0        
C2        C        0.625        0.518519        1.0        0        
C3        C        0.583333        0.537037        1.0        0        
C4        C        0.625        0.481481        1.0        0        
C1        C        0.583333        0.574075        1.0        0        
C2        C        0.625        0.62963        1.0        0        
C3        C        0.583333        0.648148        1.0        0        
C4        C        0.625        0.592592        1.0        0        
C1        C        0.666667        0.018519        1.0        0        
C2        C        0.708333        0.074075        1.0        0        
C3        C        0.666667        0.092592        1.0        0        
C4        C        0.708333        0.037037        1.0        0        
C1        C        0.666667        0.12963        1.0        0        
C2        C        0.708333        0.185185        1.0        0        
C3        C        0.666667        0.203703        1.0        0        
C4        C        0.708333        0.148148        1.0        0        
C1        C        0.666667        0.24074099999999998        1.0        0        
C2        C        0.708333        0.296297        1.0        0        
C3        C        0.666667        0.314815        1.0        0        
C4        C        0.708333        0.259259        1.0        0        
C1        C        0.666667        0.351852        1.0        0        
C2        C        0.708333        0.407408        1.0        0        
C3        C        0.666667        0.42592500000000005        1.0        0        
C4        C        0.708333        0.37037        1.0        0        
C1        C        0.666667        0.46296300000000007        1.0        0        
C2        C        0.708333        0.518519        1.0        0        
C3        C        0.666667        0.537037        1.0        0        
C4        C        0.708333        0.481481        1.0        0        
C1        C        0.666667        0.574075        1.0        0        
C2        C        0.708333        0.62963        1.0        0        
C3        C        0.666667        0.648148        1.0        0        
C4        C        0.708333        0.592592        1.0        0        
C1        C        0.75        0.018519        1.0        0        
C2        C        0.7916670000000001        0.074075        1.0        0        
C3        C        0.75        0.092592        1.0        0        
C4        C        0.7916670000000001        0.037037        1.0        0        
C1        C        0.75        0.12963        1.0        0        
C2        C        0.7916670000000001        0.185185        1.0        0        
C3        C        0.75        0.203703        1.0        0        
C4        C        0.7916670000000001        0.148148        1.0        0        
C1        C        0.75        0.24074099999999998        1.0        0        
C2        C        0.7916670000000001        0.296297        1.0        0        
C3        C        0.75        0.314815        1.0        0        
C4        C        0.7916670000000001        0.259259        1.0        0        
C1        C        0.75        0.351852        1.0        0        
C2        C        0.7916670000000001        0.407408        1.0        0        
C3        C        0.75        0.42592500000000005        1.0        0        
C4        C        0.7916670000000001        0.37037        1.0        0        
C1        C        0.75        0.46296300000000007        1.0        0        
C2        C        0.7916670000000001        0.518519        1.0        0        
C3        C        0.75        0.537037        1.0        0        
C4        C        0.7916670000000001        0.481481        1.0        0        
C1        C        0.75        0.574075        1.0        0        
C2        C        0.7916670000000001        0.62963        1.0        0        
C3        C        0.75        0.648148        1.0        0        
C4        C        0.7916670000000001        0.592592        1.0        0        
C1        C        0.833333        0.018519        1.0        0        
C2        C        0.875        0.074075        1.0        0        
C3        C        0.833333        0.092592        1.0        0        
C4        C        0.875        0.037037        1.0        0        
C1        C        0.833333        0.12963        1.0        0        
C2        C        0.875        0.185185        1.0        0        
C3        C        0.833333        0.203703        1.0        0        
C4        C        0.875        0.148148        1.0        0        
C1        C        0.833333        0.24074099999999998        1.0        0        
C2        C        0.875        0.296297        1.0        0        
C3        C        0.833333        0.314815        1.0        0        
C4        C        0.875        0.259259        1.0        0        
C1        C        0.833333        0.351852        1.0        0        
C2        C        0.875        0.407408        1.0        0        
C3        C        0.833333        0.42592500000000005        1.0        0        
C4        C        0.875        0.37037        1.0        0        
C1        C        0.833333        0.46296300000000007        1.0        0        
C2        C        0.875        0.518519        1.0        0        
C3        C        0.833333        0.537037        1.0        0        
C4        C        0.875        0.481481        1.0        0        
C1        C        0.833333        0.574075        1.0        0        
C2        C        0.875        0.62963        1.0        0        
C3        C        0.833333        0.648148        1.0        0        
C4        C        0.875        0.592592        1.0        0        
C1        C        0.916667        0.018519        1.0        0        
C2        C        0.958333        0.074075        1.0        0        
C3        C        0.916667        0.092592        1.0        0        
C4        C        0.958333        0.037037        1.0        0        
C1        C        0.916667        0.12963        1.0        0        
C2        C        0.958333        0.185185        1.0        0        
C3        C        0.916667        0.203703        1.0        0        
C4        C        0.958333        0.148148        1.0        0        
C1        C        0.916667        0.24074099999999998        1.0        0        
C2        C        0.958333        0.296297        1.0        0        
C3        C        0.916667        0.314815        1.0        0        
C4        C        0.958333        0.259259        1.0        0        
C1        C        0.916667        0.351852        1.0        0        
C2        C        0.958333        0.407408        1.0        0        
C3        C        0.916667        0.42592500000000005        1.0        0        
C4        C        0.958333        0.37037        1.0        0        
C1        C        0.916667        0.46296300000000007        1.0        0        
C2        C        0.958333        0.518519        1.0        0        
C3        C        0.916667        0.537037        1.0        0        
C4        C        0.958333        0.481481        1.0        0        
C1        C        0.916667        0.574075        1.0        0        
C2        C        0.958333        0.62963        1.0        0        
C3        C        0.916667        0.648148        1.0        0        
C4        C        0.958333        0.592592        1.0        0        
C1        C        0.0        0.685186        1.0        0        
C1        C        0.083333        0.685186        1.0        0        
C1        C        0.166667        0.685186        1.0        0        
C1        C        0.25        0.685186        1.0        0        
C1        C        0.333333        0.685186        1.0        0        
C1        C        0.416667        0.685186        1.0        0        
C1        C        0.5        0.685186        1.0        0        
C1        C        0.583333        0.685186        1.0        0        
C1        C        0.666667        0.685186        1.0        0        
C1        C        0.75        0.685186        1.0        0        
C1        C        0.833333        0.685186        1.0        0        
C1        C        0.916667        0.685186        1.0        0        
C2        C        0.041667        0.740741        1.0        0        
C2        C        0.125        0.740741        1.0        0        
C2        C        0.208333        0.740741        1.0        0        
C2        C        0.291667        0.740741        1.0        0        
C2        C        0.375        0.740741        1.0        0        
C2        C        0.458333        0.740741        1.0        0        
C2        C        0.541667        0.740741        1.0        0        
C2        C        0.625        0.740741        1.0        0        
C2        C        0.708333        0.740741        1.0        0        
C2        C        0.7916670000000001        0.740741        1.0        0        
C2        C        0.875        0.740741        1.0        0        
C2        C        0.958333        0.740741        1.0        0        
C3        C        0.0        0.759259        1.0        0        
C3        C        0.083333        0.759259        1.0        0        
C3        C        0.166667        0.759259        1.0        0        
C3        C        0.25        0.759259        1.0        0        
C3        C        0.333333        0.759259        1.0        0        
C3        C        0.416667        0.759259        1.0        0        
C3        C        0.5        0.759259        1.0        0        
C3        C        0.583333        0.759259        1.0        0        
C3        C        0.666667        0.759259        1.0        0        
C3        C        0.75        0.759259        1.0        0        
C3        C        0.833333        0.759259        1.0        0        
C3        C        0.916667        0.759259        1.0        0        
C4        C        0.041667        0.703703        1.0        0        
C4        C        0.125        0.703703        1.0        0        
C4        C        0.208333        0.703703        1.0        0        
C4        C        0.291667        0.703703        1.0        0        
C4        C        0.375        0.703703        1.0        0        
C4        C        0.458333        0.703703        1.0        0        
C4        C        0.541667        0.703703        1.0        0        
C4        C        0.625        0.703703        1.0        0        
C4        C        0.708333        0.703703        1.0        0        
C4        C        0.7916670000000001        0.703703        1.0        0        
C4        C        0.875        0.703703        1.0        0        
C4        C        0.958333        0.703703        1.0        0        
C1        C        0.0        0.796297        1.0        0        
C1        C        0.083333        0.796297        1.0        0        
C1        C        0.166667        0.796297        1.0        0        
C1        C        0.25        0.796297        1.0        0        
C1        C        0.333333        0.796297        1.0        0        
C1        C        0.416667        0.796297        1.0        0        
C1        C        0.5        0.796297        1.0        0        
C1        C        0.583333        0.796297        1.0        0        
C1        C        0.666667        0.796297        1.0        0        
C1        C        0.75        0.796297        1.0        0        
C1        C        0.833333        0.796297        1.0        0        
C1        C        0.916667        0.796297        1.0        0        
C2        C        0.041667        0.851852        1.0        0        
C2        C        0.125        0.851852        1.0        0        
C2        C        0.208333        0.851852        1.0        0        
C2        C        0.291667        0.851852        1.0        0        
C2        C        0.375        0.851852        1.0        0        
C2        C        0.458333        0.851852        1.0        0        
C2        C        0.541667        0.851852        1.0        0        
C2        C        0.625        0.851852        1.0        0        
C2        C        0.708333        0.851852        1.0        0        
C2        C        0.7916670000000001        0.851852        1.0        0        
C2        C        0.875        0.851852        1.0        0        
C2        C        0.958333        0.851852        1.0        0        
C3        C        0.0        0.87037        1.0        0        
C3        C        0.083333        0.87037        1.0        0        
C3        C        0.166667        0.87037        1.0        0        
C3        C        0.25        0.87037        1.0        0        
C3        C        0.333333        0.87037        1.0        0        
C3        C        0.416667        0.87037        1.0        0        
C3        C        0.5        0.87037        1.0        0        
C3        C        0.583333        0.87037        1.0        0        
C3        C        0.666667        0.87037        1.0        0        
C3        C        0.75        0.87037        1.0        0        
C3        C        0.833333        0.87037        1.0        0        
C3        C        0.916667        0.87037        1.0        0        
C4        C        0.041667        0.814814        1.0        0        
C4        C        0.125        0.814814        1.0        0        
C4        C        0.208333        0.814814        1.0        0        
C4        C        0.291667        0.814814        1.0        0        
C4        C        0.375        0.814814        1.0        0        
C4        C        0.458333        0.814814        1.0        0        
C4        C        0.541667        0.814814        1.0        0        
C4        C        0.625        0.814814        1.0        0        
C4        C        0.708333        0.814814        1.0        0        
C4        C        0.7916670000000001        0.814814        1.0        0        
C4        C        0.875        0.814814        1.0        0        
C4        C        0.958333        0.814814        1.0        0        
C1        C        0.0        0.907408        1.0        0        
C1        C        0.083333        0.907408        1.0        0        
C1        C        0.166667        0.907408        1.0        0        
C1        C        0.25        0.907408        1.0        0        
C1        C        0.333333        0.907408        1.0        0        
C1        C        0.416667        0.907408        1.0        0        
C1        C        0.5        0.907408        1.0        0        
C1        C        0.583333        0.907408        1.0        0        
C1        C        0.666667        0.907408        1.0        0        
C1        C        0.75        0.907408        1.0        0        
C1        C        0.833333        0.907408        1.0        0        
C1        C        0.916667        0.907408        1.0        0        
C2        C        0.041667        0.962963        1.0        0        
C2        C        0.125        0.962963        1.0        0        
C2        C        0.208333        0.962963        1.0        0        
C2        C        0.291667        0.962963        1.0        0        
C2        C        0.375        0.962963        1.0        0        
C2        C        0.458333        0.962963        1.0        0        
C2        C        0.541667        0.962963        1.0        0        
C2        C        0.625        0.962963        1.0        0        
C2        C        0.708333        0.962963        1.0        0        
C2        C        0.7916670000000001        0.962963        1.0        0        
C2        C        0.875        0.962963        1.0        0        
C2        C        0.958333        0.962963        1.0        0        
C3        C        0.0        0.9814809999999999        1.0        0        
C3        C        0.083333        0.9814809999999999        1.0        0        
C3        C        0.166667        0.9814809999999999        1.0        0        
C3        C        0.25        0.9814809999999999        1.0        0        
C3        C        0.333333        0.9814809999999999        1.0        0        
C3        C        0.416667        0.9814809999999999        1.0        0        
C3        C        0.5        0.9814809999999999        1.0        0        
C3        C        0.583333        0.9814809999999999        1.0        0        
C3        C        0.666667        0.9814809999999999        1.0        0        
C3        C        0.75        0.9814809999999999        1.0        0        
C3        C        0.833333        0.9814809999999999        1.0        0        
C3        C        0.916667        0.9814809999999999        1.0        0        
C4        C        0.041667        0.925925        1.0        0        
C4        C        0.125        0.925925        1.0        0        
C4        C        0.208333        0.925925        1.0        0        
C4        C        0.291667        0.925925        1.0        0        
C4        C        0.375        0.925925        1.0        0        
C4        C        0.458333        0.925925        1.0        0        
C4        C        0.541667        0.925925        1.0        0        
C4        C        0.625        0.925925        1.0        0        
C4        C        0.708333        0.925925        1.0        0        
C4        C        0.7916670000000001        0.925925        1.0        0        
C4        C        0.875        0.925925        1.0        0        
C4        C        0.958333        0.925925        1.0        0        
O_OH        O        0.0        0.018519        0.28141868512110724        -0.64        
O_OH        O        0.0        0.12963        0.28141868512110724        -0.64        
O_OH        O        0.0        0.24074099999999998        0.28141868512110724        -0.64        
O_OH        O        0.0        0.351852        0.28141868512110724        -0.64        
O_OH        O        0.0        0.46296300000000007        0.28141868512110724        -0.64        
O_OH        O        0.0        0.574075        0.28141868512110724        -0.64        
O_OH        O        0.166667        0.018519        0.28141868512110724        -0.64        
O_OH        O        0.166667        0.12963        0.28141868512110724        -0.64        
O_OH        O        0.166667        0.24074099999999998        0.28141868512110724        -0.64        
O_OH        O        0.166667        0.351852        0.28141868512110724        -0.64        
O_OH        O        0.166667        0.46296300000000007        0.28141868512110724        -0.64        
O_OH        O        0.166667        0.574075        0.28141868512110724        -0.64        
O_OH        O        0.75        0.018519        0.28141868512110724        -0.64        
O_OH        O        0.75        0.12963        0.28141868512110724        -0.64        
O_OH        O        0.75        0.24074099999999998        0.28141868512110724        -0.64        
O_OH        O        0.75        0.351852        0.28141868512110724        -0.64        
O_OH        O        0.75        0.46296300000000007        0.28141868512110724        -0.64        
O_OH        O        0.75        0.574075        0.28141868512110724        -0.64        
O_OH        O        0.916667        0.018519        0.28141868512110724        -0.64        
O_OH        O        0.916667        0.12963        0.28141868512110724        -0.64        
O_OH        O        0.916667        0.24074099999999998        0.28141868512110724        -0.64        
O_OH        O        0.916667        0.351852        0.28141868512110724        -0.64        
O_OH        O        0.916667        0.46296300000000007        0.28141868512110724        -0.64        
O_OH        O        0.916667        0.574075        0.28141868512110724        -0.64        
O_OH        O        0.0        0.685186        0.28141868512110724        -0.64        
O_OH        O        0.166667        0.685186        0.28141868512110724        -0.64        
O_OH        O        0.75        0.685186        0.28141868512110724        -0.64        
O_OH        O        0.916667        0.685186        0.28141868512110724        -0.64        
O_OH        O        0.0        0.796297        0.28141868512110724        -0.64        
O_OH        O        0.166667        0.796297        0.28141868512110724        -0.64        
O_OH        O        0.75        0.796297        0.28141868512110724        -0.64        
O_OH        O        0.916667        0.796297        0.28141868512110724        -0.64        
O_OH        O        0.0        0.907408        0.28141868512110724        -0.64        
O_OH        O        0.166667        0.907408        0.28141868512110724        -0.64        
O_OH        O        0.75        0.907408        0.28141868512110724        -0.64        
O_OH        O        0.916667        0.907408        0.28141868512110724        -0.64        
O_OH        O        0.0        0.018519        0.7185813148788928        -0.64        
O_OH        O        0.0        0.12963        0.7185813148788928        -0.64        
O_OH        O        0.0        0.24074099999999998        0.7185813148788928        -0.64        
O_OH        O        0.0        0.351852        0.7185813148788928        -0.64        
O_OH        O        0.0        0.46296300000000007        0.7185813148788928        -0.64        
O_OH        O        0.0        0.574075        0.7185813148788928        -0.64        
O_OH        O        0.166667        0.018519        0.7185813148788928        -0.64        
O_OH        O        0.166667        0.12963        0.7185813148788928        -0.64        
O_OH        O        0.166667        0.24074099999999998        0.7185813148788928        -0.64        
O_OH        O        0.166667        0.351852        0.7185813148788928        -0.64        
O_OH        O        0.166667        0.46296300000000007        0.7185813148788928        -0.64        
O_OH        O        0.166667        0.574075        0.7185813148788928        -0.64        
O_OH        O        0.75        0.018519        0.7185813148788928        -0.64        
O_OH        O        0.75        0.12963        0.7185813148788928        -0.64        
O_OH        O        0.75        0.24074099999999998        0.7185813148788928        -0.64        
O_OH        O        0.75        0.351852        0.7185813148788928        -0.64        
O_OH        O        0.75        0.46296300000000007        0.7185813148788928        -0.64        
O_OH        O        0.75        0.574075        0.7185813148788928        -0.64        
O_OH        O        0.916667        0.018519        0.7185813148788928        -0.64        
O_OH        O        0.916667        0.12963        0.7185813148788928        -0.64        
O_OH        O        0.916667        0.24074099999999998        0.7185813148788928        -0.64        
O_OH        O        0.916667        0.351852        0.7185813148788928        -0.64        
O_OH        O        0.916667        0.46296300000000007        0.7185813148788928        -0.64        
O_OH        O        0.916667        0.574075        0.7185813148788928        -0.64        
O_OH        O        0.0        0.685186        0.7185813148788928        -0.64        
O_OH        O        0.166667        0.685186        0.7185813148788928        -0.64        
O_OH        O        0.75        0.685186        0.7185813148788928        -0.64        
O_OH        O        0.916667        0.685186        0.7185813148788928        -0.64        
O_OH        O        0.0        0.796297        0.7185813148788928        -0.64        
O_OH        O        0.166667        0.796297        0.7185813148788928        -0.64        
O_OH        O        0.75        0.796297        0.7185813148788928        -0.64        
O_OH        O        0.916667        0.796297        0.7185813148788928        -0.64        
O_OH        O        0.0        0.907408        0.7185813148788928        -0.64        
O_OH        O        0.166667        0.907408        0.7185813148788928        -0.64        
O_OH        O        0.75        0.907408        0.7185813148788928        -0.64        
O_OH        O        0.916667        0.907408        0.7185813148788928        -0.64        
H_OH        H        -0.005391715579052246        0.041602121471096834        0.7069481314878893        0.44        
H_OH        H        -0.03006047667442369        0.13342026612900515        0.7069481314878893        0.44        
H_OH        H        0.009973968130585638        0.2629015466617441        0.7069481314878893        0.44        
H_OH        H        0.02909629781921233        0.35879315642510656        0.7069481314878893        0.44        
H_OH        H        0.022809685956881372        0.4785073528002718        0.7069481314878893        0.44        
H_OH        H        -0.019776067156846527        0.591913544983145        0.7069481314878893        0.44        
H_OH        H        0.13898427286438692        0.02830473934734274        0.7069481314878893        0.44        
H_OH        H        0.17943220025835419        0.15092466782627673        0.7069481314878893        0.44        
H_OH        H        0.19672993060398186        0.2445197104090971        0.7069481314878893        0.44        
H_OH        H        0.159114686056817        0.37457315696934157        0.7069481314878893        0.44        
H_OH        H        0.15580844556186246        0.4848756698991233        0.7069481314878893        0.44        
H_OH        H        0.14306629341797952        0.5889027868791356        0.7069481314878893        0.44        
H_OH        H        0.7734695850323796        0.03346965732870544        0.7069481314878893        0.44        
H_OH        H        0.7745648089800694        0.1434984687925153        0.7069481314878893        0.44        
H_OH        H        0.7201096920759986        0.24525918518824716        0.7069481314878893        0.44        
H_OH        H        0.7586738681574294        0.3743344903792619        0.7069481314878893        0.44        
H_OH        H        0.7556249759052048        0.48601309921202496        0.7069481314878893        0.44        
H_OH        H        0.7803060802923284        0.5764365056010081        0.7069481314878893        0.44        
H_OH        H        0.9215906747621276        0.041664035818865214        0.7069481314878893        0.44        
H_OH        H        0.9055067865027392        0.15145263607301807        0.7069481314878893        0.44        
H_OH        H        0.8943805958117228        0.2567290089268098        0.7069481314878893        0.44        
H_OH        H        0.8885391805317218        0.36085390828148967        0.7069481314878893        0.44        
H_OH        H        0.9071177114317597        0.48523417057475476        0.7069481314878893        0.44        
H_OH        H        0.9096518772212288        0.5968980179028697        0.7069481314878893        0.44        
H_OH        H        -0.007038882050772011        0.7080046807980593        0.7069481314878893        0.44        
H_OH        H        0.1720144647322912        0.7082752230085558        0.7069481314878893        0.44        
H_OH        H        0.7233954849731503        0.6966079426714323        0.7069481314878893        0.44        
H_OH        H        0.9333290310785918        0.7048196848593893        0.7069481314878893        0.44        
H_OH        H        0.009342734963184924        0.818620045944857        0.7069481314878893        0.44        
H_OH        H        0.19569955897125713        0.8033946135775065        0.7069481314878893        0.44        
H_OH        H        0.7360597832240794        0.8171503056348407        0.7069481314878893        0.44        
H_OH        H        0.9398169352406543        0.8115402419620354        0.7069481314878893        0.44        
H_OH        H        0.030276758815571025        0.9099828388248216        0.7069481314878893        0.44        
H_OH        H        0.1411894606382764        0.9202632292699587        0.7069481314878893        0.44        
H_OH        H        0.7546469216414918        0.930586932272586        0.7069481314878893        0.44        
H_OH        H        0.9461580114704982        0.9132791486921751        0.7069481314878893        0.44        
