data_graphite_ortho

_audit_creation_method RASPA-1.0
_audit_creation_date 2012-2-3
_audit_author_name 'David Dubbeldam'

_cell_length_a    39.36    
_cell_length_b    38.34    
_cell_length_c    25.2    
_cell_angle_alpha 90
_cell_angle_beta  90
_cell_angle_gamma 90
_cell_volume      38028.37      

_symmetry_cell_setting          triclinic
_symmetry_space_group_name_Hall 'P 1'
_symmetry_space_group_name_H-M  'P 1'
_symmetry_Int_Tables_number     1

_symmetry_equiv_pos_as_xyz 'x,y,z'

loop_
_atom_site_label
_atom_site_type_symbol
_atom_site_fract_x
_atom_site_fract_y
_atom_site_fract_z
_atom_site_charge
C_Base_CO        C        0.0        0.018519        0.07020630952380952        0.5        
C_Base_OH        C        0.03125        0.074075        0.07020630952380952        0.2        
C_Base_OH        C        0.0        0.092592        0.07020630952380952        0.2        
C_Base_CO        C        0.03125        0.037037        0.07020630952380952        0.5        
C_Base_CO        C        0.0        0.12963        0.07020630952380952        0.5        
C_Base_CO        C        0.03125        0.185185        0.07020630952380952        0.5        
C_Base_CO        C        0.0        0.203703        0.07020630952380952        0.5        
C_Base_OH        C        0.03125        0.148148        0.07020630952380952        0.2        
C_Base_CO        C        0.0        0.24074099999999998        0.07020630952380952        0.5        
C_Base_OH        C        0.03125        0.296297        0.07020630952380952        0.2        
C_Base_OH        C        0.0        0.314815        0.07020630952380952        0.2        
C_Base_CO        C        0.03125        0.259259        0.07020630952380952        0.5        
C_Base_OH        C        0.0        0.351852        0.07020630952380952        0.2        
C_Base_CO        C        0.03125        0.407408        0.07020630952380952        0.5        
C_Base_OH        C        0.0        0.42592500000000005        0.07020630952380952        0.2        
C_Base_OH        C        0.03125        0.37037        0.07020630952380952        0.2        
C_Base_OH        C        0.0        0.46296300000000007        0.07020630952380952        0.2        
C_Base_OH        C        0.03125        0.518519        0.07020630952380952        0.2        
C_Base_CO        C        0.0        0.537037        0.07020630952380952        0.5        
C_Base_CO        C        0.03125        0.481481        0.07020630952380952        0.5        
C_Base_OH        C        0.0        0.574075        0.07020630952380952        0.2        
C_Base_CO        C        0.03125        0.62963        0.07020630952380952        0.5        
C_Base_CO        C        0.0        0.648148        0.07020630952380952        0.5        
C_Base_OH        C        0.03125        0.592592        0.07020630952380952        0.2        
C_Base_CO        C        0.0625        0.018519        0.07020630952380952        0.5        
C_Base_OH        C        0.09375        0.074075        0.07020630952380952        0.2        
C_Base_OH        C        0.0625        0.092592        0.07020630952380952        0.2        
C_Base_CO        C        0.09375        0.037037        0.07020630952380952        0.5        
C_Base_CO        C        0.0625        0.12963        0.07020630952380952        0.5        
C_Base_CO        C        0.09375        0.185185        0.07020630952380952        0.5        
C_Base_CO        C        0.0625        0.203703        0.07020630952380952        0.5        
C_Base_OH        C        0.09375        0.148148        0.07020630952380952        0.2        
C_Base_CO        C        0.0625        0.24074099999999998        0.07020630952380952        0.5        
C_Base_OH        C        0.09375        0.296297        0.07020630952380952        0.2        
C_Base_OH        C        0.0625        0.314815        0.07020630952380952        0.2        
C_Base_CO        C        0.09375        0.259259        0.07020630952380952        0.5        
C_Base_OH        C        0.0625        0.351852        0.07020630952380952        0.2        
C_Base_CO        C        0.09375        0.407408        0.07020630952380952        0.5        
C_Base_OH        C        0.0625        0.42592500000000005        0.07020630952380952        0.2        
C_Base_OH        C        0.09375        0.37037        0.07020630952380952        0.2        
C_Base_OH        C        0.0625        0.46296300000000007        0.07020630952380952        0.2        
C_Base_OH        C        0.09375        0.518519        0.07020630952380952        0.2        
C_Base_CO        C        0.0625        0.537037        0.07020630952380952        0.5        
C_Base_CO        C        0.09375        0.481481        0.07020630952380952        0.5        
C_Base_OH        C        0.0625        0.574075        0.07020630952380952        0.2        
C_Base_CO        C        0.09375        0.62963        0.07020630952380952        0.5        
C_Base_CO        C        0.0625        0.648148        0.07020630952380952        0.5        
C_Base_OH        C        0.09375        0.592592        0.07020630952380952        0.2        
C1        C        0.125        0.018519        0.07020630952380952        0        
C2        C        0.15625        0.074075        0.07020630952380952        0        
C3        C        0.125        0.092592        0.07020630952380952        0        
C4        C        0.15625        0.037037        0.07020630952380952        0        
C1        C        0.125        0.12963        0.07020630952380952        0        
C2        C        0.15625        0.185185        0.07020630952380952        0        
C3        C        0.125        0.203703        0.07020630952380952        0        
C4        C        0.15625        0.148148        0.07020630952380952        0        
C1        C        0.125        0.24074099999999998        0.07020630952380952        0        
C2        C        0.15625        0.296297        0.07020630952380952        0        
C3        C        0.125        0.314815        0.07020630952380952        0        
C4        C        0.15625        0.259259        0.07020630952380952        0        
C1        C        0.125        0.351852        0.07020630952380952        0        
C2        C        0.15625        0.407408        0.07020630952380952        0        
C3        C        0.125        0.42592500000000005        0.07020630952380952        0        
C4        C        0.15625        0.37037        0.07020630952380952        0        
C1        C        0.125        0.46296300000000007        0.07020630952380952        0        
C2        C        0.15625        0.518519        0.07020630952380952        0        
C3        C        0.125        0.537037        0.07020630952380952        0        
C4        C        0.15625        0.481481        0.07020630952380952        0        
C1        C        0.125        0.574075        0.07020630952380952        0        
C2        C        0.15625        0.62963        0.07020630952380952        0        
C3        C        0.125        0.648148        0.07020630952380952        0        
C4        C        0.15625        0.592592        0.07020630952380952        0        
C1        C        0.1875        0.018519        0.07020630952380952        0        
C2        C        0.21875        0.074075        0.07020630952380952        0        
C3        C        0.1875        0.092592        0.07020630952380952        0        
C4        C        0.21875        0.037037        0.07020630952380952        0        
C1        C        0.1875        0.12963        0.07020630952380952        0        
C2        C        0.21875        0.185185        0.07020630952380952        0        
C3        C        0.1875        0.203703        0.07020630952380952        0        
C4        C        0.21875        0.148148        0.07020630952380952        0        
C1        C        0.1875        0.24074099999999998        0.07020630952380952        0        
C2        C        0.21875        0.296297        0.07020630952380952        0        
C3        C        0.1875        0.314815        0.07020630952380952        0        
C4        C        0.21875        0.259259        0.07020630952380952        0        
C1        C        0.1875        0.351852        0.07020630952380952        0        
C2        C        0.21875        0.407408        0.07020630952380952        0        
C3        C        0.1875        0.42592500000000005        0.07020630952380952        0        
C4        C        0.21875        0.37037        0.07020630952380952        0        
C1        C        0.1875        0.46296300000000007        0.07020630952380952        0        
C2        C        0.21875        0.518519        0.07020630952380952        0        
C3        C        0.1875        0.537037        0.07020630952380952        0        
C4        C        0.21875        0.481481        0.07020630952380952        0        
C1        C        0.1875        0.574075        0.07020630952380952        0        
C2        C        0.21875        0.62963        0.07020630952380952        0        
C3        C        0.1875        0.648148        0.07020630952380952        0        
C4        C        0.21875        0.592592        0.07020630952380952        0        
C1        C        0.25        0.018519        0.07020630952380952        0        
C2        C        0.28125        0.074075        0.07020630952380952        0        
C3        C        0.25        0.092592        0.07020630952380952        0        
C4        C        0.28125        0.037037        0.07020630952380952        0        
C1        C        0.25        0.12963        0.07020630952380952        0        
C2        C        0.28125        0.185185        0.07020630952380952        0        
C3        C        0.25        0.203703        0.07020630952380952        0        
C4        C        0.28125        0.148148        0.07020630952380952        0        
C1        C        0.25        0.24074099999999998        0.07020630952380952        0        
C2        C        0.28125        0.296297        0.07020630952380952        0        
C3        C        0.25        0.314815        0.07020630952380952        0        
C4        C        0.28125        0.259259        0.07020630952380952        0        
C1        C        0.25        0.351852        0.07020630952380952        0        
C2        C        0.28125        0.407408        0.07020630952380952        0        
C3        C        0.25        0.42592500000000005        0.07020630952380952        0        
C4        C        0.28125        0.37037        0.07020630952380952        0        
C1        C        0.25        0.46296300000000007        0.07020630952380952        0        
C2        C        0.28125        0.518519        0.07020630952380952        0        
C3        C        0.25        0.537037        0.07020630952380952        0        
C4        C        0.28125        0.481481        0.07020630952380952        0        
C1        C        0.25        0.574075        0.07020630952380952        0        
C2        C        0.28125        0.62963        0.07020630952380952        0        
C3        C        0.25        0.648148        0.07020630952380952        0        
C4        C        0.28125        0.592592        0.07020630952380952        0        
C1        C        0.3125        0.018519        0.07020630952380952        0        
C2        C        0.34375        0.074075        0.07020630952380952        0        
C3        C        0.3125        0.092592        0.07020630952380952        0        
C4        C        0.34375        0.037037        0.07020630952380952        0        
C1        C        0.3125        0.12963        0.07020630952380952        0        
C2        C        0.34375        0.185185        0.07020630952380952        0        
C3        C        0.3125        0.203703        0.07020630952380952        0        
C4        C        0.34375        0.148148        0.07020630952380952        0        
C1        C        0.3125        0.24074099999999998        0.07020630952380952        0        
C2        C        0.34375        0.296297        0.07020630952380952        0        
C3        C        0.3125        0.314815        0.07020630952380952        0        
C4        C        0.34375        0.259259        0.07020630952380952        0        
C1        C        0.3125        0.351852        0.07020630952380952        0        
C2        C        0.34375        0.407408        0.07020630952380952        0        
C3        C        0.3125        0.42592500000000005        0.07020630952380952        0        
C4        C        0.34375        0.37037        0.07020630952380952        0        
C1        C        0.3125        0.46296300000000007        0.07020630952380952        0        
C2        C        0.34375        0.518519        0.07020630952380952        0        
C3        C        0.3125        0.537037        0.07020630952380952        0        
C4        C        0.34375        0.481481        0.07020630952380952        0        
C1        C        0.3125        0.574075        0.07020630952380952        0        
C2        C        0.34375        0.62963        0.07020630952380952        0        
C3        C        0.3125        0.648148        0.07020630952380952        0        
C4        C        0.34375        0.592592        0.07020630952380952        0        
C1        C        0.375        0.018519        0.07020630952380952        0        
C2        C        0.40625        0.074075        0.07020630952380952        0        
C3        C        0.375        0.092592        0.07020630952380952        0        
C4        C        0.40625        0.037037        0.07020630952380952        0        
C1        C        0.375        0.12963        0.07020630952380952        0        
C2        C        0.40625        0.185185        0.07020630952380952        0        
C3        C        0.375        0.203703        0.07020630952380952        0        
C4        C        0.40625        0.148148        0.07020630952380952        0        
C1        C        0.375        0.24074099999999998        0.07020630952380952        0        
C2        C        0.40625        0.296297        0.07020630952380952        0        
C3        C        0.375        0.314815        0.07020630952380952        0        
C4        C        0.40625        0.259259        0.07020630952380952        0        
C1        C        0.375        0.351852        0.07020630952380952        0        
C2        C        0.40625        0.407408        0.07020630952380952        0        
C3        C        0.375        0.42592500000000005        0.07020630952380952        0        
C4        C        0.40625        0.37037        0.07020630952380952        0        
C1        C        0.375        0.46296300000000007        0.07020630952380952        0        
C2        C        0.40625        0.518519        0.07020630952380952        0        
C3        C        0.375        0.537037        0.07020630952380952        0        
C4        C        0.40625        0.481481        0.07020630952380952        0        
C1        C        0.375        0.574075        0.07020630952380952        0        
C2        C        0.40625        0.62963        0.07020630952380952        0        
C3        C        0.375        0.648148        0.07020630952380952        0        
C4        C        0.40625        0.592592        0.07020630952380952        0        
C1        C        0.4375        0.018519        0.07020630952380952        0        
C2        C        0.46875        0.074075        0.07020630952380952        0        
C3        C        0.4375        0.092592        0.07020630952380952        0        
C4        C        0.46875        0.037037        0.07020630952380952        0        
C1        C        0.4375        0.12963        0.07020630952380952        0        
C2        C        0.46875        0.185185        0.07020630952380952        0        
C3        C        0.4375        0.203703        0.07020630952380952        0        
C4        C        0.46875        0.148148        0.07020630952380952        0        
C1        C        0.4375        0.24074099999999998        0.07020630952380952        0        
C2        C        0.46875        0.296297        0.07020630952380952        0        
C3        C        0.4375        0.314815        0.07020630952380952        0        
C4        C        0.46875        0.259259        0.07020630952380952        0        
C1        C        0.4375        0.351852        0.07020630952380952        0        
C2        C        0.46875        0.407408        0.07020630952380952        0        
C3        C        0.4375        0.42592500000000005        0.07020630952380952        0        
C4        C        0.46875        0.37037        0.07020630952380952        0        
C1        C        0.4375        0.46296300000000007        0.07020630952380952        0        
C2        C        0.46875        0.518519        0.07020630952380952        0        
C3        C        0.4375        0.537037        0.07020630952380952        0        
C4        C        0.46875        0.481481        0.07020630952380952        0        
C1        C        0.4375        0.574075        0.07020630952380952        0        
C2        C        0.46875        0.62963        0.07020630952380952        0        
C3        C        0.4375        0.648148        0.07020630952380952        0        
C4        C        0.46875        0.592592        0.07020630952380952        0        
C1        C        0.5        0.018519        0.07020630952380952        0        
C2        C        0.53125        0.074075        0.07020630952380952        0        
C3        C        0.5        0.092592        0.07020630952380952        0        
C4        C        0.53125        0.037037        0.07020630952380952        0        
C1        C        0.5        0.12963        0.07020630952380952        0        
C2        C        0.53125        0.185185        0.07020630952380952        0        
C3        C        0.5        0.203703        0.07020630952380952        0        
C4        C        0.53125        0.148148        0.07020630952380952        0        
C1        C        0.5        0.24074099999999998        0.07020630952380952        0        
C2        C        0.53125        0.296297        0.07020630952380952        0        
C3        C        0.5        0.314815        0.07020630952380952        0        
C4        C        0.53125        0.259259        0.07020630952380952        0        
C1        C        0.5        0.351852        0.07020630952380952        0        
C2        C        0.53125        0.407408        0.07020630952380952        0        
C3        C        0.5        0.42592500000000005        0.07020630952380952        0        
C4        C        0.53125        0.37037        0.07020630952380952        0        
C1        C        0.5        0.46296300000000007        0.07020630952380952        0        
C2        C        0.53125        0.518519        0.07020630952380952        0        
C3        C        0.5        0.537037        0.07020630952380952        0        
C4        C        0.53125        0.481481        0.07020630952380952        0        
C1        C        0.5        0.574075        0.07020630952380952        0        
C2        C        0.53125        0.62963        0.07020630952380952        0        
C3        C        0.5        0.648148        0.07020630952380952        0        
C4        C        0.53125        0.592592        0.07020630952380952        0        
C1        C        0.5625        0.018519        0.07020630952380952        0        
C2        C        0.59375        0.074075        0.07020630952380952        0        
C3        C        0.5625        0.092592        0.07020630952380952        0        
C4        C        0.59375        0.037037        0.07020630952380952        0        
C1        C        0.5625        0.12963        0.07020630952380952        0        
C2        C        0.59375        0.185185        0.07020630952380952        0        
C3        C        0.5625        0.203703        0.07020630952380952        0        
C4        C        0.59375        0.148148        0.07020630952380952        0        
C1        C        0.5625        0.24074099999999998        0.07020630952380952        0        
C2        C        0.59375        0.296297        0.07020630952380952        0        
C3        C        0.5625        0.314815        0.07020630952380952        0        
C4        C        0.59375        0.259259        0.07020630952380952        0        
C1        C        0.5625        0.351852        0.07020630952380952        0        
C2        C        0.59375        0.407408        0.07020630952380952        0        
C3        C        0.5625        0.42592500000000005        0.07020630952380952        0        
C4        C        0.59375        0.37037        0.07020630952380952        0        
C1        C        0.5625        0.46296300000000007        0.07020630952380952        0        
C2        C        0.59375        0.518519        0.07020630952380952        0        
C3        C        0.5625        0.537037        0.07020630952380952        0        
C4        C        0.59375        0.481481        0.07020630952380952        0        
C1        C        0.5625        0.574075        0.07020630952380952        0        
C2        C        0.59375        0.62963        0.07020630952380952        0        
C3        C        0.5625        0.648148        0.07020630952380952        0        
C4        C        0.59375        0.592592        0.07020630952380952        0        
C1        C        0.625        0.018519        0.07020630952380952        0        
C2        C        0.65625        0.074075        0.07020630952380952        0        
C3        C        0.625        0.092592        0.07020630952380952        0        
C4        C        0.65625        0.037037        0.07020630952380952        0        
C1        C        0.625        0.12963        0.07020630952380952        0        
C2        C        0.65625        0.185185        0.07020630952380952        0        
C3        C        0.625        0.203703        0.07020630952380952        0        
C4        C        0.65625        0.148148        0.07020630952380952        0        
C1        C        0.625        0.24074099999999998        0.07020630952380952        0        
C2        C        0.65625        0.296297        0.07020630952380952        0        
C3        C        0.625        0.314815        0.07020630952380952        0        
C4        C        0.65625        0.259259        0.07020630952380952        0        
C1        C        0.625        0.351852        0.07020630952380952        0        
C2        C        0.65625        0.407408        0.07020630952380952        0        
C3        C        0.625        0.42592500000000005        0.07020630952380952        0        
C4        C        0.65625        0.37037        0.07020630952380952        0        
C1        C        0.625        0.46296300000000007        0.07020630952380952        0        
C2        C        0.65625        0.518519        0.07020630952380952        0        
C3        C        0.625        0.537037        0.07020630952380952        0        
C4        C        0.65625        0.481481        0.07020630952380952        0        
C1        C        0.625        0.574075        0.07020630952380952        0        
C2        C        0.65625        0.62963        0.07020630952380952        0        
C3        C        0.625        0.648148        0.07020630952380952        0        
C4        C        0.65625        0.592592        0.07020630952380952        0        
C1        C        0.6875        0.018519        0.07020630952380952        0        
C2        C        0.71875        0.074075        0.07020630952380952        0        
C3        C        0.6875        0.092592        0.07020630952380952        0        
C4        C        0.71875        0.037037        0.07020630952380952        0        
C1        C        0.6875        0.12963        0.07020630952380952        0        
C2        C        0.71875        0.185185        0.07020630952380952        0        
C3        C        0.6875        0.203703        0.07020630952380952        0        
C4        C        0.71875        0.148148        0.07020630952380952        0        
C1        C        0.6875        0.24074099999999998        0.07020630952380952        0        
C2        C        0.71875        0.296297        0.07020630952380952        0        
C3        C        0.6875        0.314815        0.07020630952380952        0        
C4        C        0.71875        0.259259        0.07020630952380952        0        
C1        C        0.6875        0.351852        0.07020630952380952        0        
C2        C        0.71875        0.407408        0.07020630952380952        0        
C3        C        0.6875        0.42592500000000005        0.07020630952380952        0        
C4        C        0.71875        0.37037        0.07020630952380952        0        
C1        C        0.6875        0.46296300000000007        0.07020630952380952        0        
C2        C        0.71875        0.518519        0.07020630952380952        0        
C3        C        0.6875        0.537037        0.07020630952380952        0        
C4        C        0.71875        0.481481        0.07020630952380952        0        
C1        C        0.6875        0.574075        0.07020630952380952        0        
C2        C        0.71875        0.62963        0.07020630952380952        0        
C3        C        0.6875        0.648148        0.07020630952380952        0        
C4        C        0.71875        0.592592        0.07020630952380952        0        
C1        C        0.75        0.018519        0.07020630952380952        0        
C2        C        0.78125        0.074075        0.07020630952380952        0        
C3        C        0.75        0.092592        0.07020630952380952        0        
C4        C        0.78125        0.037037        0.07020630952380952        0        
C1        C        0.75        0.12963        0.07020630952380952        0        
C2        C        0.78125        0.185185        0.07020630952380952        0        
C3        C        0.75        0.203703        0.07020630952380952        0        
C4        C        0.78125        0.148148        0.07020630952380952        0        
C1        C        0.75        0.24074099999999998        0.07020630952380952        0        
C2        C        0.78125        0.296297        0.07020630952380952        0        
C3        C        0.75        0.314815        0.07020630952380952        0        
C4        C        0.78125        0.259259        0.07020630952380952        0        
C1        C        0.75        0.351852        0.07020630952380952        0        
C2        C        0.78125        0.407408        0.07020630952380952        0        
C3        C        0.75        0.42592500000000005        0.07020630952380952        0        
C4        C        0.78125        0.37037        0.07020630952380952        0        
C1        C        0.75        0.46296300000000007        0.07020630952380952        0        
C2        C        0.78125        0.518519        0.07020630952380952        0        
C3        C        0.75        0.537037        0.07020630952380952        0        
C4        C        0.78125        0.481481        0.07020630952380952        0        
C1        C        0.75        0.574075        0.07020630952380952        0        
C2        C        0.78125        0.62963        0.07020630952380952        0        
C3        C        0.75        0.648148        0.07020630952380952        0        
C4        C        0.78125        0.592592        0.07020630952380952        0        
C1        C        0.8125        0.018519        0.07020630952380952        0        
C2        C        0.84375        0.074075        0.07020630952380952        0        
C3        C        0.8125        0.092592        0.07020630952380952        0        
C4        C        0.84375        0.037037        0.07020630952380952        0        
C1        C        0.8125        0.12963        0.07020630952380952        0        
C2        C        0.84375        0.185185        0.07020630952380952        0        
C3        C        0.8125        0.203703        0.07020630952380952        0        
C4        C        0.84375        0.148148        0.07020630952380952        0        
C1        C        0.8125        0.24074099999999998        0.07020630952380952        0        
C2        C        0.84375        0.296297        0.07020630952380952        0        
C3        C        0.8125        0.314815        0.07020630952380952        0        
C4        C        0.84375        0.259259        0.07020630952380952        0        
C1        C        0.8125        0.351852        0.07020630952380952        0        
C2        C        0.84375        0.407408        0.07020630952380952        0        
C3        C        0.8125        0.42592500000000005        0.07020630952380952        0        
C4        C        0.84375        0.37037        0.07020630952380952        0        
C1        C        0.8125        0.46296300000000007        0.07020630952380952        0        
C2        C        0.84375        0.518519        0.07020630952380952        0        
C3        C        0.8125        0.537037        0.07020630952380952        0        
C4        C        0.84375        0.481481        0.07020630952380952        0        
C1        C        0.8125        0.574075        0.07020630952380952        0        
C2        C        0.84375        0.62963        0.07020630952380952        0        
C3        C        0.8125        0.648148        0.07020630952380952        0        
C4        C        0.84375        0.592592        0.07020630952380952        0        
C1        C        0.875        0.018519        0.07020630952380952        0        
C2        C        0.9062500000000001        0.074075        0.07020630952380952        0        
C3        C        0.875        0.092592        0.07020630952380952        0        
C4        C        0.9062500000000001        0.037037        0.07020630952380952        0        
C1        C        0.875        0.12963        0.07020630952380952        0        
C2        C        0.9062500000000001        0.185185        0.07020630952380952        0        
C3        C        0.875        0.203703        0.07020630952380952        0        
C4        C        0.9062500000000001        0.148148        0.07020630952380952        0        
C1        C        0.875        0.24074099999999998        0.07020630952380952        0        
C2        C        0.9062500000000001        0.296297        0.07020630952380952        0        
C3        C        0.875        0.314815        0.07020630952380952        0        
C4        C        0.9062500000000001        0.259259        0.07020630952380952        0        
C1        C        0.875        0.351852        0.07020630952380952        0        
C2        C        0.9062500000000001        0.407408        0.07020630952380952        0        
C3        C        0.875        0.42592500000000005        0.07020630952380952        0        
C4        C        0.9062500000000001        0.37037        0.07020630952380952        0        
C1        C        0.875        0.46296300000000007        0.07020630952380952        0        
C2        C        0.9062500000000001        0.518519        0.07020630952380952        0        
C3        C        0.875        0.537037        0.07020630952380952        0        
C4        C        0.9062500000000001        0.481481        0.07020630952380952        0        
C1        C        0.875        0.574075        0.07020630952380952        0        
C2        C        0.9062500000000001        0.62963        0.07020630952380952        0        
C3        C        0.875        0.648148        0.07020630952380952        0        
C4        C        0.9062500000000001        0.592592        0.07020630952380952        0        
C1        C        0.9375        0.018519        0.07020630952380952        0        
C2        C        0.9687500000000001        0.074075        0.07020630952380952        0        
C3        C        0.9375        0.092592        0.07020630952380952        0        
C4        C        0.9687500000000001        0.037037        0.07020630952380952        0        
C1        C        0.9375        0.12963        0.07020630952380952        0        
C2        C        0.9687500000000001        0.185185        0.07020630952380952        0        
C3        C        0.9375        0.203703        0.07020630952380952        0        
C4        C        0.9687500000000001        0.148148        0.07020630952380952        0        
C1        C        0.9375        0.24074099999999998        0.07020630952380952        0        
C2        C        0.9687500000000001        0.296297        0.07020630952380952        0        
C3        C        0.9375        0.314815        0.07020630952380952        0        
C4        C        0.9687500000000001        0.259259        0.07020630952380952        0        
C1        C        0.9375        0.351852        0.07020630952380952        0        
C2        C        0.9687500000000001        0.407408        0.07020630952380952        0        
C3        C        0.9375        0.42592500000000005        0.07020630952380952        0        
C4        C        0.9687500000000001        0.37037        0.07020630952380952        0        
C1        C        0.9375        0.46296300000000007        0.07020630952380952        0        
C2        C        0.9687500000000001        0.518519        0.07020630952380952        0        
C3        C        0.9375        0.537037        0.07020630952380952        0        
C4        C        0.9687500000000001        0.481481        0.07020630952380952        0        
C1        C        0.9375        0.574075        0.07020630952380952        0        
C2        C        0.9687500000000001        0.62963        0.07020630952380952        0        
C3        C        0.9375        0.648148        0.07020630952380952        0        
C4        C        0.9687500000000001        0.592592        0.07020630952380952        0        
C1        C        0.0        0.685186        0.07020630952380952        0        
C1        C        0.0625        0.685186        0.07020630952380952        0        
C1        C        0.125        0.685186        0.07020630952380952        0        
C1        C        0.1875        0.685186        0.07020630952380952        0        
C1        C        0.25        0.685186        0.07020630952380952        0        
C1        C        0.3125        0.685186        0.07020630952380952        0        
C1        C        0.375        0.685186        0.07020630952380952        0        
C1        C        0.4375        0.685186        0.07020630952380952        0        
C1        C        0.5        0.685186        0.07020630952380952        0        
C1        C        0.5625        0.685186        0.07020630952380952        0        
C1        C        0.625        0.685186        0.07020630952380952        0        
C1        C        0.6875        0.685186        0.07020630952380952        0        
C1        C        0.75        0.685186        0.07020630952380952        0        
C1        C        0.8125        0.685186        0.07020630952380952        0        
C1        C        0.875        0.685186        0.07020630952380952        0        
C1        C        0.9375        0.685186        0.07020630952380952        0        
C2        C        0.03125        0.740741        0.07020630952380952        0        
C2        C        0.09375        0.740741        0.07020630952380952        0        
C2        C        0.15625        0.740741        0.07020630952380952        0        
C2        C        0.21875        0.740741        0.07020630952380952        0        
C2        C        0.28125        0.740741        0.07020630952380952        0        
C2        C        0.34375        0.740741        0.07020630952380952        0        
C2        C        0.40625        0.740741        0.07020630952380952        0        
C2        C        0.46875        0.740741        0.07020630952380952        0        
C2        C        0.53125        0.740741        0.07020630952380952        0        
C2        C        0.59375        0.740741        0.07020630952380952        0        
C2        C        0.65625        0.740741        0.07020630952380952        0        
C2        C        0.71875        0.740741        0.07020630952380952        0        
C2        C        0.78125        0.740741        0.07020630952380952        0        
C2        C        0.84375        0.740741        0.07020630952380952        0        
C2        C        0.9062500000000001        0.740741        0.07020630952380952        0        
C2        C        0.9687500000000001        0.740741        0.07020630952380952        0        
C3        C        0.0        0.759259        0.07020630952380952        0        
C3        C        0.0625        0.759259        0.07020630952380952        0        
C3        C        0.125        0.759259        0.07020630952380952        0        
C3        C        0.1875        0.759259        0.07020630952380952        0        
C3        C        0.25        0.759259        0.07020630952380952        0        
C3        C        0.3125        0.759259        0.07020630952380952        0        
C3        C        0.375        0.759259        0.07020630952380952        0        
C3        C        0.4375        0.759259        0.07020630952380952        0        
C3        C        0.5        0.759259        0.07020630952380952        0        
C3        C        0.5625        0.759259        0.07020630952380952        0        
C3        C        0.625        0.759259        0.07020630952380952        0        
C3        C        0.6875        0.759259        0.07020630952380952        0        
C3        C        0.75        0.759259        0.07020630952380952        0        
C3        C        0.8125        0.759259        0.07020630952380952        0        
C3        C        0.875        0.759259        0.07020630952380952        0        
C3        C        0.9375        0.759259        0.07020630952380952        0        
C4        C        0.03125        0.703703        0.07020630952380952        0        
C4        C        0.09375        0.703703        0.07020630952380952        0        
C4        C        0.15625        0.703703        0.07020630952380952        0        
C4        C        0.21875        0.703703        0.07020630952380952        0        
C4        C        0.28125        0.703703        0.07020630952380952        0        
C4        C        0.34375        0.703703        0.07020630952380952        0        
C4        C        0.40625        0.703703        0.07020630952380952        0        
C4        C        0.46875        0.703703        0.07020630952380952        0        
C4        C        0.53125        0.703703        0.07020630952380952        0        
C4        C        0.59375        0.703703        0.07020630952380952        0        
C4        C        0.65625        0.703703        0.07020630952380952        0        
C4        C        0.71875        0.703703        0.07020630952380952        0        
C4        C        0.78125        0.703703        0.07020630952380952        0        
C4        C        0.84375        0.703703        0.07020630952380952        0        
C4        C        0.9062500000000001        0.703703        0.07020630952380952        0        
C4        C        0.9687500000000001        0.703703        0.07020630952380952        0        
C1        C        0.0        0.796297        0.07020630952380952        0        
C1        C        0.0625        0.796297        0.07020630952380952        0        
C1        C        0.125        0.796297        0.07020630952380952        0        
C1        C        0.1875        0.796297        0.07020630952380952        0        
C1        C        0.25        0.796297        0.07020630952380952        0        
C1        C        0.3125        0.796297        0.07020630952380952        0        
C1        C        0.375        0.796297        0.07020630952380952        0        
C1        C        0.4375        0.796297        0.07020630952380952        0        
C1        C        0.5        0.796297        0.07020630952380952        0        
C1        C        0.5625        0.796297        0.07020630952380952        0        
C1        C        0.625        0.796297        0.07020630952380952        0        
C1        C        0.6875        0.796297        0.07020630952380952        0        
C1        C        0.75        0.796297        0.07020630952380952        0        
C1        C        0.8125        0.796297        0.07020630952380952        0        
C1        C        0.875        0.796297        0.07020630952380952        0        
C1        C        0.9375        0.796297        0.07020630952380952        0        
C2        C        0.03125        0.851852        0.07020630952380952        0        
C2        C        0.09375        0.851852        0.07020630952380952        0        
C2        C        0.15625        0.851852        0.07020630952380952        0        
C2        C        0.21875        0.851852        0.07020630952380952        0        
C2        C        0.28125        0.851852        0.07020630952380952        0        
C2        C        0.34375        0.851852        0.07020630952380952        0        
C2        C        0.40625        0.851852        0.07020630952380952        0        
C2        C        0.46875        0.851852        0.07020630952380952        0        
C2        C        0.53125        0.851852        0.07020630952380952        0        
C2        C        0.59375        0.851852        0.07020630952380952        0        
C2        C        0.65625        0.851852        0.07020630952380952        0        
C2        C        0.71875        0.851852        0.07020630952380952        0        
C2        C        0.78125        0.851852        0.07020630952380952        0        
C2        C        0.84375        0.851852        0.07020630952380952        0        
C2        C        0.9062500000000001        0.851852        0.07020630952380952        0        
C2        C        0.9687500000000001        0.851852        0.07020630952380952        0        
C3        C        0.0        0.87037        0.07020630952380952        0        
C3        C        0.0625        0.87037        0.07020630952380952        0        
C3        C        0.125        0.87037        0.07020630952380952        0        
C3        C        0.1875        0.87037        0.07020630952380952        0        
C3        C        0.25        0.87037        0.07020630952380952        0        
C3        C        0.3125        0.87037        0.07020630952380952        0        
C3        C        0.375        0.87037        0.07020630952380952        0        
C3        C        0.4375        0.87037        0.07020630952380952        0        
C3        C        0.5        0.87037        0.07020630952380952        0        
C3        C        0.5625        0.87037        0.07020630952380952        0        
C3        C        0.625        0.87037        0.07020630952380952        0        
C3        C        0.6875        0.87037        0.07020630952380952        0        
C3        C        0.75        0.87037        0.07020630952380952        0        
C3        C        0.8125        0.87037        0.07020630952380952        0        
C3        C        0.875        0.87037        0.07020630952380952        0        
C3        C        0.9375        0.87037        0.07020630952380952        0        
C4        C        0.03125        0.814814        0.07020630952380952        0        
C4        C        0.09375        0.814814        0.07020630952380952        0        
C4        C        0.15625        0.814814        0.07020630952380952        0        
C4        C        0.21875        0.814814        0.07020630952380952        0        
C4        C        0.28125        0.814814        0.07020630952380952        0        
C4        C        0.34375        0.814814        0.07020630952380952        0        
C4        C        0.40625        0.814814        0.07020630952380952        0        
C4        C        0.46875        0.814814        0.07020630952380952        0        
C4        C        0.53125        0.814814        0.07020630952380952        0        
C4        C        0.59375        0.814814        0.07020630952380952        0        
C4        C        0.65625        0.814814        0.07020630952380952        0        
C4        C        0.71875        0.814814        0.07020630952380952        0        
C4        C        0.78125        0.814814        0.07020630952380952        0        
C4        C        0.84375        0.814814        0.07020630952380952        0        
C4        C        0.9062500000000001        0.814814        0.07020630952380952        0        
C4        C        0.9687500000000001        0.814814        0.07020630952380952        0        
C1        C        0.0        0.907408        0.07020630952380952        0        
C1        C        0.0625        0.907408        0.07020630952380952        0        
C1        C        0.125        0.907408        0.07020630952380952        0        
C1        C        0.1875        0.907408        0.07020630952380952        0        
C1        C        0.25        0.907408        0.07020630952380952        0        
C1        C        0.3125        0.907408        0.07020630952380952        0        
C1        C        0.375        0.907408        0.07020630952380952        0        
C1        C        0.4375        0.907408        0.07020630952380952        0        
C1        C        0.5        0.907408        0.07020630952380952        0        
C1        C        0.5625        0.907408        0.07020630952380952        0        
C1        C        0.625        0.907408        0.07020630952380952        0        
C1        C        0.6875        0.907408        0.07020630952380952        0        
C1        C        0.75        0.907408        0.07020630952380952        0        
C1        C        0.8125        0.907408        0.07020630952380952        0        
C1        C        0.875        0.907408        0.07020630952380952        0        
C1        C        0.9375        0.907408        0.07020630952380952        0        
C2        C        0.03125        0.962963        0.07020630952380952        0        
C2        C        0.09375        0.962963        0.07020630952380952        0        
C2        C        0.15625        0.962963        0.07020630952380952        0        
C2        C        0.21875        0.962963        0.07020630952380952        0        
C2        C        0.28125        0.962963        0.07020630952380952        0        
C2        C        0.34375        0.962963        0.07020630952380952        0        
C2        C        0.40625        0.962963        0.07020630952380952        0        
C2        C        0.46875        0.962963        0.07020630952380952        0        
C2        C        0.53125        0.962963        0.07020630952380952        0        
C2        C        0.59375        0.962963        0.07020630952380952        0        
C2        C        0.65625        0.962963        0.07020630952380952        0        
C2        C        0.71875        0.962963        0.07020630952380952        0        
C2        C        0.78125        0.962963        0.07020630952380952        0        
C2        C        0.84375        0.962963        0.07020630952380952        0        
C2        C        0.9062500000000001        0.962963        0.07020630952380952        0        
C2        C        0.9687500000000001        0.962963        0.07020630952380952        0        
C3        C        0.0        0.9814809999999999        0.07020630952380952        0        
C3        C        0.0625        0.9814809999999999        0.07020630952380952        0        
C3        C        0.125        0.9814809999999999        0.07020630952380952        0        
C3        C        0.1875        0.9814809999999999        0.07020630952380952        0        
C3        C        0.25        0.9814809999999999        0.07020630952380952        0        
C3        C        0.3125        0.9814809999999999        0.07020630952380952        0        
C3        C        0.375        0.9814809999999999        0.07020630952380952        0        
C3        C        0.4375        0.9814809999999999        0.07020630952380952        0        
C3        C        0.5        0.9814809999999999        0.07020630952380952        0        
C3        C        0.5625        0.9814809999999999        0.07020630952380952        0        
C3        C        0.625        0.9814809999999999        0.07020630952380952        0        
C3        C        0.6875        0.9814809999999999        0.07020630952380952        0        
C3        C        0.75        0.9814809999999999        0.07020630952380952        0        
C3        C        0.8125        0.9814809999999999        0.07020630952380952        0        
C3        C        0.875        0.9814809999999999        0.07020630952380952        0        
C3        C        0.9375        0.9814809999999999        0.07020630952380952        0        
C4        C        0.03125        0.925925        0.07020630952380952        0        
C4        C        0.09375        0.925925        0.07020630952380952        0        
C4        C        0.15625        0.925925        0.07020630952380952        0        
C4        C        0.21875        0.925925        0.07020630952380952        0        
C4        C        0.28125        0.925925        0.07020630952380952        0        
C4        C        0.34375        0.925925        0.07020630952380952        0        
C4        C        0.40625        0.925925        0.07020630952380952        0        
C4        C        0.46875        0.925925        0.07020630952380952        0        
C4        C        0.53125        0.925925        0.07020630952380952        0        
C4        C        0.59375        0.925925        0.07020630952380952        0        
C4        C        0.65625        0.925925        0.07020630952380952        0        
C4        C        0.71875        0.925925        0.07020630952380952        0        
C4        C        0.78125        0.925925        0.07020630952380952        0        
C4        C        0.84375        0.925925        0.07020630952380952        0        
C4        C        0.9062500000000001        0.925925        0.07020630952380952        0        
C4        C        0.9687500000000001        0.925925        0.07020630952380952        0        
C1        C        0.0        0.018519        0.2031433095238095        0        
C2        C        0.03125        0.074075        0.2031433095238095        0        
C3        C        0.0        0.092592        0.2031433095238095        0        
C4        C        0.03125        0.037037        0.2031433095238095        0        
C1        C        0.0        0.12963        0.2031433095238095        0        
C2        C        0.03125        0.185185        0.2031433095238095        0        
C3        C        0.0        0.203703        0.2031433095238095        0        
C4        C        0.03125        0.148148        0.2031433095238095        0        
C1        C        0.0        0.24074099999999998        0.2031433095238095        0        
C2        C        0.03125        0.296297        0.2031433095238095        0        
C3        C        0.0        0.314815        0.2031433095238095        0        
C4        C        0.03125        0.259259        0.2031433095238095        0        
C1        C        0.0        0.351852        0.2031433095238095        0        
C2        C        0.03125        0.407408        0.2031433095238095        0        
C3        C        0.0        0.42592500000000005        0.2031433095238095        0        
C4        C        0.03125        0.37037        0.2031433095238095        0        
C1        C        0.0        0.46296300000000007        0.2031433095238095        0        
C2        C        0.03125        0.518519        0.2031433095238095        0        
C3        C        0.0        0.537037        0.2031433095238095        0        
C4        C        0.03125        0.481481        0.2031433095238095        0        
C1        C        0.0        0.574075        0.2031433095238095        0        
C2        C        0.03125        0.62963        0.2031433095238095        0        
C3        C        0.0        0.648148        0.2031433095238095        0        
C4        C        0.03125        0.592592        0.2031433095238095        0        
C1        C        0.0625        0.018519        0.2031433095238095        0        
C2        C        0.09375        0.074075        0.2031433095238095        0        
C3        C        0.0625        0.092592        0.2031433095238095        0        
C4        C        0.09375        0.037037        0.2031433095238095        0        
C1        C        0.0625        0.12963        0.2031433095238095        0        
C2        C        0.09375        0.185185        0.2031433095238095        0        
C3        C        0.0625        0.203703        0.2031433095238095        0        
C4        C        0.09375        0.148148        0.2031433095238095        0        
C1        C        0.0625        0.24074099999999998        0.2031433095238095        0        
C2        C        0.09375        0.296297        0.2031433095238095        0        
C3        C        0.0625        0.314815        0.2031433095238095        0        
C4        C        0.09375        0.259259        0.2031433095238095        0        
C1        C        0.0625        0.351852        0.2031433095238095        0        
C2        C        0.09375        0.407408        0.2031433095238095        0        
C3        C        0.0625        0.42592500000000005        0.2031433095238095        0        
C4        C        0.09375        0.37037        0.2031433095238095        0        
C1        C        0.0625        0.46296300000000007        0.2031433095238095        0        
C2        C        0.09375        0.518519        0.2031433095238095        0        
C3        C        0.0625        0.537037        0.2031433095238095        0        
C4        C        0.09375        0.481481        0.2031433095238095        0        
C1        C        0.0625        0.574075        0.2031433095238095        0        
C2        C        0.09375        0.62963        0.2031433095238095        0        
C3        C        0.0625        0.648148        0.2031433095238095        0        
C4        C        0.09375        0.592592        0.2031433095238095        0        
C1        C        0.125        0.018519        0.2031433095238095        0        
C2        C        0.15625        0.074075        0.2031433095238095        0        
C3        C        0.125        0.092592        0.2031433095238095        0        
C4        C        0.15625        0.037037        0.2031433095238095        0        
C1        C        0.125        0.12963        0.2031433095238095        0        
C2        C        0.15625        0.185185        0.2031433095238095        0        
C3        C        0.125        0.203703        0.2031433095238095        0        
C4        C        0.15625        0.148148        0.2031433095238095        0        
C1        C        0.125        0.24074099999999998        0.2031433095238095        0        
C2        C        0.15625        0.296297        0.2031433095238095        0        
C3        C        0.125        0.314815        0.2031433095238095        0        
C4        C        0.15625        0.259259        0.2031433095238095        0        
C1        C        0.125        0.351852        0.2031433095238095        0        
C2        C        0.15625        0.407408        0.2031433095238095        0        
C3        C        0.125        0.42592500000000005        0.2031433095238095        0        
C4        C        0.15625        0.37037        0.2031433095238095        0        
C1        C        0.125        0.46296300000000007        0.2031433095238095        0        
C2        C        0.15625        0.518519        0.2031433095238095        0        
C3        C        0.125        0.537037        0.2031433095238095        0        
C4        C        0.15625        0.481481        0.2031433095238095        0        
C1        C        0.125        0.574075        0.2031433095238095        0        
C2        C        0.15625        0.62963        0.2031433095238095        0        
C3        C        0.125        0.648148        0.2031433095238095        0        
C4        C        0.15625        0.592592        0.2031433095238095        0        
C1        C        0.1875        0.018519        0.2031433095238095        0        
C2        C        0.21875        0.074075        0.2031433095238095        0        
C3        C        0.1875        0.092592        0.2031433095238095        0        
C4        C        0.21875        0.037037        0.2031433095238095        0        
C1        C        0.1875        0.12963        0.2031433095238095        0        
C2        C        0.21875        0.185185        0.2031433095238095        0        
C3        C        0.1875        0.203703        0.2031433095238095        0        
C4        C        0.21875        0.148148        0.2031433095238095        0        
C1        C        0.1875        0.24074099999999998        0.2031433095238095        0        
C2        C        0.21875        0.296297        0.2031433095238095        0        
C3        C        0.1875        0.314815        0.2031433095238095        0        
C4        C        0.21875        0.259259        0.2031433095238095        0        
C1        C        0.1875        0.351852        0.2031433095238095        0        
C2        C        0.21875        0.407408        0.2031433095238095        0        
C3        C        0.1875        0.42592500000000005        0.2031433095238095        0        
C4        C        0.21875        0.37037        0.2031433095238095        0        
C1        C        0.1875        0.46296300000000007        0.2031433095238095        0        
C2        C        0.21875        0.518519        0.2031433095238095        0        
C3        C        0.1875        0.537037        0.2031433095238095        0        
C4        C        0.21875        0.481481        0.2031433095238095        0        
C1        C        0.1875        0.574075        0.2031433095238095        0        
C2        C        0.21875        0.62963        0.2031433095238095        0        
C3        C        0.1875        0.648148        0.2031433095238095        0        
C4        C        0.21875        0.592592        0.2031433095238095        0        
C1        C        0.25        0.018519        0.2031433095238095        0        
C2        C        0.28125        0.074075        0.2031433095238095        0        
C3        C        0.25        0.092592        0.2031433095238095        0        
C4        C        0.28125        0.037037        0.2031433095238095        0        
C1        C        0.25        0.12963        0.2031433095238095        0        
C2        C        0.28125        0.185185        0.2031433095238095        0        
C3        C        0.25        0.203703        0.2031433095238095        0        
C4        C        0.28125        0.148148        0.2031433095238095        0        
C1        C        0.25        0.24074099999999998        0.2031433095238095        0        
C2        C        0.28125        0.296297        0.2031433095238095        0        
C3        C        0.25        0.314815        0.2031433095238095        0        
C4        C        0.28125        0.259259        0.2031433095238095        0        
C1        C        0.25        0.351852        0.2031433095238095        0        
C2        C        0.28125        0.407408        0.2031433095238095        0        
C3        C        0.25        0.42592500000000005        0.2031433095238095        0        
C4        C        0.28125        0.37037        0.2031433095238095        0        
C1        C        0.25        0.46296300000000007        0.2031433095238095        0        
C2        C        0.28125        0.518519        0.2031433095238095        0        
C3        C        0.25        0.537037        0.2031433095238095        0        
C4        C        0.28125        0.481481        0.2031433095238095        0        
C1        C        0.25        0.574075        0.2031433095238095        0        
C2        C        0.28125        0.62963        0.2031433095238095        0        
C3        C        0.25        0.648148        0.2031433095238095        0        
C4        C        0.28125        0.592592        0.2031433095238095        0        
C1        C        0.3125        0.018519        0.2031433095238095        0        
C2        C        0.34375        0.074075        0.2031433095238095        0        
C3        C        0.3125        0.092592        0.2031433095238095        0        
C4        C        0.34375        0.037037        0.2031433095238095        0        
C1        C        0.3125        0.12963        0.2031433095238095        0        
C2        C        0.34375        0.185185        0.2031433095238095        0        
C3        C        0.3125        0.203703        0.2031433095238095        0        
C4        C        0.34375        0.148148        0.2031433095238095        0        
C1        C        0.3125        0.24074099999999998        0.2031433095238095        0        
C2        C        0.34375        0.296297        0.2031433095238095        0        
C3        C        0.3125        0.314815        0.2031433095238095        0        
C4        C        0.34375        0.259259        0.2031433095238095        0        
C1        C        0.3125        0.351852        0.2031433095238095        0        
C2        C        0.34375        0.407408        0.2031433095238095        0        
C3        C        0.3125        0.42592500000000005        0.2031433095238095        0        
C4        C        0.34375        0.37037        0.2031433095238095        0        
C1        C        0.3125        0.46296300000000007        0.2031433095238095        0        
C2        C        0.34375        0.518519        0.2031433095238095        0        
C3        C        0.3125        0.537037        0.2031433095238095        0        
C4        C        0.34375        0.481481        0.2031433095238095        0        
C1        C        0.3125        0.574075        0.2031433095238095        0        
C2        C        0.34375        0.62963        0.2031433095238095        0        
C3        C        0.3125        0.648148        0.2031433095238095        0        
C4        C        0.34375        0.592592        0.2031433095238095        0        
C1        C        0.375        0.018519        0.2031433095238095        0        
C2        C        0.40625        0.074075        0.2031433095238095        0        
C3        C        0.375        0.092592        0.2031433095238095        0        
C4        C        0.40625        0.037037        0.2031433095238095        0        
C1        C        0.375        0.12963        0.2031433095238095        0        
C2        C        0.40625        0.185185        0.2031433095238095        0        
C3        C        0.375        0.203703        0.2031433095238095        0        
C4        C        0.40625        0.148148        0.2031433095238095        0        
C1        C        0.375        0.24074099999999998        0.2031433095238095        0        
C2        C        0.40625        0.296297        0.2031433095238095        0        
C3        C        0.375        0.314815        0.2031433095238095        0        
C4        C        0.40625        0.259259        0.2031433095238095        0        
C1        C        0.375        0.351852        0.2031433095238095        0        
C2        C        0.40625        0.407408        0.2031433095238095        0        
C3        C        0.375        0.42592500000000005        0.2031433095238095        0        
C4        C        0.40625        0.37037        0.2031433095238095        0        
C1        C        0.375        0.46296300000000007        0.2031433095238095        0        
C2        C        0.40625        0.518519        0.2031433095238095        0        
C3        C        0.375        0.537037        0.2031433095238095        0        
C4        C        0.40625        0.481481        0.2031433095238095        0        
C1        C        0.375        0.574075        0.2031433095238095        0        
C2        C        0.40625        0.62963        0.2031433095238095        0        
C3        C        0.375        0.648148        0.2031433095238095        0        
C4        C        0.40625        0.592592        0.2031433095238095        0        
C1        C        0.4375        0.018519        0.2031433095238095        0        
C2        C        0.46875        0.074075        0.2031433095238095        0        
C3        C        0.4375        0.092592        0.2031433095238095        0        
C4        C        0.46875        0.037037        0.2031433095238095        0        
C1        C        0.4375        0.12963        0.2031433095238095        0        
C2        C        0.46875        0.185185        0.2031433095238095        0        
C3        C        0.4375        0.203703        0.2031433095238095        0        
C4        C        0.46875        0.148148        0.2031433095238095        0        
C1        C        0.4375        0.24074099999999998        0.2031433095238095        0        
C2        C        0.46875        0.296297        0.2031433095238095        0        
C3        C        0.4375        0.314815        0.2031433095238095        0        
C4        C        0.46875        0.259259        0.2031433095238095        0        
C1        C        0.4375        0.351852        0.2031433095238095        0        
C2        C        0.46875        0.407408        0.2031433095238095        0        
C3        C        0.4375        0.42592500000000005        0.2031433095238095        0        
C4        C        0.46875        0.37037        0.2031433095238095        0        
C1        C        0.4375        0.46296300000000007        0.2031433095238095        0        
C2        C        0.46875        0.518519        0.2031433095238095        0        
C3        C        0.4375        0.537037        0.2031433095238095        0        
C4        C        0.46875        0.481481        0.2031433095238095        0        
C1        C        0.4375        0.574075        0.2031433095238095        0        
C2        C        0.46875        0.62963        0.2031433095238095        0        
C3        C        0.4375        0.648148        0.2031433095238095        0        
C4        C        0.46875        0.592592        0.2031433095238095        0        
C1        C        0.5        0.018519        0.2031433095238095        0        
C2        C        0.53125        0.074075        0.2031433095238095        0        
C3        C        0.5        0.092592        0.2031433095238095        0        
C4        C        0.53125        0.037037        0.2031433095238095        0        
C1        C        0.5        0.12963        0.2031433095238095        0        
C2        C        0.53125        0.185185        0.2031433095238095        0        
C3        C        0.5        0.203703        0.2031433095238095        0        
C4        C        0.53125        0.148148        0.2031433095238095        0        
C1        C        0.5        0.24074099999999998        0.2031433095238095        0        
C2        C        0.53125        0.296297        0.2031433095238095        0        
C3        C        0.5        0.314815        0.2031433095238095        0        
C4        C        0.53125        0.259259        0.2031433095238095        0        
C1        C        0.5        0.351852        0.2031433095238095        0        
C2        C        0.53125        0.407408        0.2031433095238095        0        
C3        C        0.5        0.42592500000000005        0.2031433095238095        0        
C4        C        0.53125        0.37037        0.2031433095238095        0        
C1        C        0.5        0.46296300000000007        0.2031433095238095        0        
C2        C        0.53125        0.518519        0.2031433095238095        0        
C3        C        0.5        0.537037        0.2031433095238095        0        
C4        C        0.53125        0.481481        0.2031433095238095        0        
C1        C        0.5        0.574075        0.2031433095238095        0        
C2        C        0.53125        0.62963        0.2031433095238095        0        
C3        C        0.5        0.648148        0.2031433095238095        0        
C4        C        0.53125        0.592592        0.2031433095238095        0        
C1        C        0.5625        0.018519        0.2031433095238095        0        
C2        C        0.59375        0.074075        0.2031433095238095        0        
C3        C        0.5625        0.092592        0.2031433095238095        0        
C4        C        0.59375        0.037037        0.2031433095238095        0        
C1        C        0.5625        0.12963        0.2031433095238095        0        
C2        C        0.59375        0.185185        0.2031433095238095        0        
C3        C        0.5625        0.203703        0.2031433095238095        0        
C4        C        0.59375        0.148148        0.2031433095238095        0        
C1        C        0.5625        0.24074099999999998        0.2031433095238095        0        
C2        C        0.59375        0.296297        0.2031433095238095        0        
C3        C        0.5625        0.314815        0.2031433095238095        0        
C4        C        0.59375        0.259259        0.2031433095238095        0        
C1        C        0.5625        0.351852        0.2031433095238095        0        
C2        C        0.59375        0.407408        0.2031433095238095        0        
C3        C        0.5625        0.42592500000000005        0.2031433095238095        0        
C4        C        0.59375        0.37037        0.2031433095238095        0        
C1        C        0.5625        0.46296300000000007        0.2031433095238095        0        
C2        C        0.59375        0.518519        0.2031433095238095        0        
C3        C        0.5625        0.537037        0.2031433095238095        0        
C4        C        0.59375        0.481481        0.2031433095238095        0        
C1        C        0.5625        0.574075        0.2031433095238095        0        
C2        C        0.59375        0.62963        0.2031433095238095        0        
C3        C        0.5625        0.648148        0.2031433095238095        0        
C4        C        0.59375        0.592592        0.2031433095238095        0        
C1        C        0.625        0.018519        0.2031433095238095        0        
C2        C        0.65625        0.074075        0.2031433095238095        0        
C3        C        0.625        0.092592        0.2031433095238095        0        
C4        C        0.65625        0.037037        0.2031433095238095        0        
C1        C        0.625        0.12963        0.2031433095238095        0        
C2        C        0.65625        0.185185        0.2031433095238095        0        
C3        C        0.625        0.203703        0.2031433095238095        0        
C4        C        0.65625        0.148148        0.2031433095238095        0        
C1        C        0.625        0.24074099999999998        0.2031433095238095        0        
C2        C        0.65625        0.296297        0.2031433095238095        0        
C3        C        0.625        0.314815        0.2031433095238095        0        
C4        C        0.65625        0.259259        0.2031433095238095        0        
C1        C        0.625        0.351852        0.2031433095238095        0        
C2        C        0.65625        0.407408        0.2031433095238095        0        
C3        C        0.625        0.42592500000000005        0.2031433095238095        0        
C4        C        0.65625        0.37037        0.2031433095238095        0        
C1        C        0.625        0.46296300000000007        0.2031433095238095        0        
C2        C        0.65625        0.518519        0.2031433095238095        0        
C3        C        0.625        0.537037        0.2031433095238095        0        
C4        C        0.65625        0.481481        0.2031433095238095        0        
C1        C        0.625        0.574075        0.2031433095238095        0        
C2        C        0.65625        0.62963        0.2031433095238095        0        
C3        C        0.625        0.648148        0.2031433095238095        0        
C4        C        0.65625        0.592592        0.2031433095238095        0        
C1        C        0.6875        0.018519        0.2031433095238095        0        
C2        C        0.71875        0.074075        0.2031433095238095        0        
C3        C        0.6875        0.092592        0.2031433095238095        0        
C4        C        0.71875        0.037037        0.2031433095238095        0        
C1        C        0.6875        0.12963        0.2031433095238095        0        
C2        C        0.71875        0.185185        0.2031433095238095        0        
C3        C        0.6875        0.203703        0.2031433095238095        0        
C4        C        0.71875        0.148148        0.2031433095238095        0        
C1        C        0.6875        0.24074099999999998        0.2031433095238095        0        
C2        C        0.71875        0.296297        0.2031433095238095        0        
C3        C        0.6875        0.314815        0.2031433095238095        0        
C4        C        0.71875        0.259259        0.2031433095238095        0        
C1        C        0.6875        0.351852        0.2031433095238095        0        
C2        C        0.71875        0.407408        0.2031433095238095        0        
C3        C        0.6875        0.42592500000000005        0.2031433095238095        0        
C4        C        0.71875        0.37037        0.2031433095238095        0        
C1        C        0.6875        0.46296300000000007        0.2031433095238095        0        
C2        C        0.71875        0.518519        0.2031433095238095        0        
C3        C        0.6875        0.537037        0.2031433095238095        0        
C4        C        0.71875        0.481481        0.2031433095238095        0        
C1        C        0.6875        0.574075        0.2031433095238095        0        
C2        C        0.71875        0.62963        0.2031433095238095        0        
C3        C        0.6875        0.648148        0.2031433095238095        0        
C4        C        0.71875        0.592592        0.2031433095238095        0        
C1        C        0.75        0.018519        0.2031433095238095        0        
C2        C        0.78125        0.074075        0.2031433095238095        0        
C3        C        0.75        0.092592        0.2031433095238095        0        
C4        C        0.78125        0.037037        0.2031433095238095        0        
C1        C        0.75        0.12963        0.2031433095238095        0        
C2        C        0.78125        0.185185        0.2031433095238095        0        
C3        C        0.75        0.203703        0.2031433095238095        0        
C4        C        0.78125        0.148148        0.2031433095238095        0        
C1        C        0.75        0.24074099999999998        0.2031433095238095        0        
C2        C        0.78125        0.296297        0.2031433095238095        0        
C3        C        0.75        0.314815        0.2031433095238095        0        
C4        C        0.78125        0.259259        0.2031433095238095        0        
C1        C        0.75        0.351852        0.2031433095238095        0        
C2        C        0.78125        0.407408        0.2031433095238095        0        
C3        C        0.75        0.42592500000000005        0.2031433095238095        0        
C4        C        0.78125        0.37037        0.2031433095238095        0        
C1        C        0.75        0.46296300000000007        0.2031433095238095        0        
C2        C        0.78125        0.518519        0.2031433095238095        0        
C3        C        0.75        0.537037        0.2031433095238095        0        
C4        C        0.78125        0.481481        0.2031433095238095        0        
C1        C        0.75        0.574075        0.2031433095238095        0        
C2        C        0.78125        0.62963        0.2031433095238095        0        
C3        C        0.75        0.648148        0.2031433095238095        0        
C4        C        0.78125        0.592592        0.2031433095238095        0        
C1        C        0.8125        0.018519        0.2031433095238095        0        
C2        C        0.84375        0.074075        0.2031433095238095        0        
C3        C        0.8125        0.092592        0.2031433095238095        0        
C4        C        0.84375        0.037037        0.2031433095238095        0        
C1        C        0.8125        0.12963        0.2031433095238095        0        
C2        C        0.84375        0.185185        0.2031433095238095        0        
C3        C        0.8125        0.203703        0.2031433095238095        0        
C4        C        0.84375        0.148148        0.2031433095238095        0        
C1        C        0.8125        0.24074099999999998        0.2031433095238095        0        
C2        C        0.84375        0.296297        0.2031433095238095        0        
C3        C        0.8125        0.314815        0.2031433095238095        0        
C4        C        0.84375        0.259259        0.2031433095238095        0        
C1        C        0.8125        0.351852        0.2031433095238095        0        
C2        C        0.84375        0.407408        0.2031433095238095        0        
C3        C        0.8125        0.42592500000000005        0.2031433095238095        0        
C4        C        0.84375        0.37037        0.2031433095238095        0        
C1        C        0.8125        0.46296300000000007        0.2031433095238095        0        
C2        C        0.84375        0.518519        0.2031433095238095        0        
C3        C        0.8125        0.537037        0.2031433095238095        0        
C4        C        0.84375        0.481481        0.2031433095238095        0        
C1        C        0.8125        0.574075        0.2031433095238095        0        
C2        C        0.84375        0.62963        0.2031433095238095        0        
C3        C        0.8125        0.648148        0.2031433095238095        0        
C4        C        0.84375        0.592592        0.2031433095238095        0        
C1        C        0.875        0.018519        0.2031433095238095        0        
C2        C        0.9062500000000001        0.074075        0.2031433095238095        0        
C3        C        0.875        0.092592        0.2031433095238095        0        
C4        C        0.9062500000000001        0.037037        0.2031433095238095        0        
C1        C        0.875        0.12963        0.2031433095238095        0        
C2        C        0.9062500000000001        0.185185        0.2031433095238095        0        
C3        C        0.875        0.203703        0.2031433095238095        0        
C4        C        0.9062500000000001        0.148148        0.2031433095238095        0        
C1        C        0.875        0.24074099999999998        0.2031433095238095        0        
C2        C        0.9062500000000001        0.296297        0.2031433095238095        0        
C3        C        0.875        0.314815        0.2031433095238095        0        
C4        C        0.9062500000000001        0.259259        0.2031433095238095        0        
C1        C        0.875        0.351852        0.2031433095238095        0        
C2        C        0.9062500000000001        0.407408        0.2031433095238095        0        
C3        C        0.875        0.42592500000000005        0.2031433095238095        0        
C4        C        0.9062500000000001        0.37037        0.2031433095238095        0        
C1        C        0.875        0.46296300000000007        0.2031433095238095        0        
C2        C        0.9062500000000001        0.518519        0.2031433095238095        0        
C3        C        0.875        0.537037        0.2031433095238095        0        
C4        C        0.9062500000000001        0.481481        0.2031433095238095        0        
C1        C        0.875        0.574075        0.2031433095238095        0        
C2        C        0.9062500000000001        0.62963        0.2031433095238095        0        
C3        C        0.875        0.648148        0.2031433095238095        0        
C4        C        0.9062500000000001        0.592592        0.2031433095238095        0        
C1        C        0.9375        0.018519        0.2031433095238095        0        
C2        C        0.9687500000000001        0.074075        0.2031433095238095        0        
C3        C        0.9375        0.092592        0.2031433095238095        0        
C4        C        0.9687500000000001        0.037037        0.2031433095238095        0        
C1        C        0.9375        0.12963        0.2031433095238095        0        
C2        C        0.9687500000000001        0.185185        0.2031433095238095        0        
C3        C        0.9375        0.203703        0.2031433095238095        0        
C4        C        0.9687500000000001        0.148148        0.2031433095238095        0        
C1        C        0.9375        0.24074099999999998        0.2031433095238095        0        
C2        C        0.9687500000000001        0.296297        0.2031433095238095        0        
C3        C        0.9375        0.314815        0.2031433095238095        0        
C4        C        0.9687500000000001        0.259259        0.2031433095238095        0        
C1        C        0.9375        0.351852        0.2031433095238095        0        
C2        C        0.9687500000000001        0.407408        0.2031433095238095        0        
C3        C        0.9375        0.42592500000000005        0.2031433095238095        0        
C4        C        0.9687500000000001        0.37037        0.2031433095238095        0        
C1        C        0.9375        0.46296300000000007        0.2031433095238095        0        
C2        C        0.9687500000000001        0.518519        0.2031433095238095        0        
C3        C        0.9375        0.537037        0.2031433095238095        0        
C4        C        0.9687500000000001        0.481481        0.2031433095238095        0        
C1        C        0.9375        0.574075        0.2031433095238095        0        
C2        C        0.9687500000000001        0.62963        0.2031433095238095        0        
C3        C        0.9375        0.648148        0.2031433095238095        0        
C4        C        0.9687500000000001        0.592592        0.2031433095238095        0        
C1        C        0.0        0.685186        0.2031433095238095        0        
C1        C        0.0625        0.685186        0.2031433095238095        0        
C1        C        0.125        0.685186        0.2031433095238095        0        
C1        C        0.1875        0.685186        0.2031433095238095        0        
C1        C        0.25        0.685186        0.2031433095238095        0        
C1        C        0.3125        0.685186        0.2031433095238095        0        
C1        C        0.375        0.685186        0.2031433095238095        0        
C1        C        0.4375        0.685186        0.2031433095238095        0        
C1        C        0.5        0.685186        0.2031433095238095        0        
C1        C        0.5625        0.685186        0.2031433095238095        0        
C1        C        0.625        0.685186        0.2031433095238095        0        
C1        C        0.6875        0.685186        0.2031433095238095        0        
C1        C        0.75        0.685186        0.2031433095238095        0        
C1        C        0.8125        0.685186        0.2031433095238095        0        
C1        C        0.875        0.685186        0.2031433095238095        0        
C1        C        0.9375        0.685186        0.2031433095238095        0        
C2        C        0.03125        0.740741        0.2031433095238095        0        
C2        C        0.09375        0.740741        0.2031433095238095        0        
C2        C        0.15625        0.740741        0.2031433095238095        0        
C2        C        0.21875        0.740741        0.2031433095238095        0        
C2        C        0.28125        0.740741        0.2031433095238095        0        
C2        C        0.34375        0.740741        0.2031433095238095        0        
C2        C        0.40625        0.740741        0.2031433095238095        0        
C2        C        0.46875        0.740741        0.2031433095238095        0        
C2        C        0.53125        0.740741        0.2031433095238095        0        
C2        C        0.59375        0.740741        0.2031433095238095        0        
C2        C        0.65625        0.740741        0.2031433095238095        0        
C2        C        0.71875        0.740741        0.2031433095238095        0        
C2        C        0.78125        0.740741        0.2031433095238095        0        
C2        C        0.84375        0.740741        0.2031433095238095        0        
C2        C        0.9062500000000001        0.740741        0.2031433095238095        0        
C2        C        0.9687500000000001        0.740741        0.2031433095238095        0        
C3        C        0.0        0.759259        0.2031433095238095        0        
C3        C        0.0625        0.759259        0.2031433095238095        0        
C3        C        0.125        0.759259        0.2031433095238095        0        
C3        C        0.1875        0.759259        0.2031433095238095        0        
C3        C        0.25        0.759259        0.2031433095238095        0        
C3        C        0.3125        0.759259        0.2031433095238095        0        
C3        C        0.375        0.759259        0.2031433095238095        0        
C3        C        0.4375        0.759259        0.2031433095238095        0        
C3        C        0.5        0.759259        0.2031433095238095        0        
C3        C        0.5625        0.759259        0.2031433095238095        0        
C3        C        0.625        0.759259        0.2031433095238095        0        
C3        C        0.6875        0.759259        0.2031433095238095        0        
C3        C        0.75        0.759259        0.2031433095238095        0        
C3        C        0.8125        0.759259        0.2031433095238095        0        
C3        C        0.875        0.759259        0.2031433095238095        0        
C3        C        0.9375        0.759259        0.2031433095238095        0        
C4        C        0.03125        0.703703        0.2031433095238095        0        
C4        C        0.09375        0.703703        0.2031433095238095        0        
C4        C        0.15625        0.703703        0.2031433095238095        0        
C4        C        0.21875        0.703703        0.2031433095238095        0        
C4        C        0.28125        0.703703        0.2031433095238095        0        
C4        C        0.34375        0.703703        0.2031433095238095        0        
C4        C        0.40625        0.703703        0.2031433095238095        0        
C4        C        0.46875        0.703703        0.2031433095238095        0        
C4        C        0.53125        0.703703        0.2031433095238095        0        
C4        C        0.59375        0.703703        0.2031433095238095        0        
C4        C        0.65625        0.703703        0.2031433095238095        0        
C4        C        0.71875        0.703703        0.2031433095238095        0        
C4        C        0.78125        0.703703        0.2031433095238095        0        
C4        C        0.84375        0.703703        0.2031433095238095        0        
C4        C        0.9062500000000001        0.703703        0.2031433095238095        0        
C4        C        0.9687500000000001        0.703703        0.2031433095238095        0        
C1        C        0.0        0.796297        0.2031433095238095        0        
C1        C        0.0625        0.796297        0.2031433095238095        0        
C1        C        0.125        0.796297        0.2031433095238095        0        
C1        C        0.1875        0.796297        0.2031433095238095        0        
C1        C        0.25        0.796297        0.2031433095238095        0        
C1        C        0.3125        0.796297        0.2031433095238095        0        
C1        C        0.375        0.796297        0.2031433095238095        0        
C1        C        0.4375        0.796297        0.2031433095238095        0        
C1        C        0.5        0.796297        0.2031433095238095        0        
C1        C        0.5625        0.796297        0.2031433095238095        0        
C1        C        0.625        0.796297        0.2031433095238095        0        
C1        C        0.6875        0.796297        0.2031433095238095        0        
C1        C        0.75        0.796297        0.2031433095238095        0        
C1        C        0.8125        0.796297        0.2031433095238095        0        
C1        C        0.875        0.796297        0.2031433095238095        0        
C1        C        0.9375        0.796297        0.2031433095238095        0        
C2        C        0.03125        0.851852        0.2031433095238095        0        
C2        C        0.09375        0.851852        0.2031433095238095        0        
C2        C        0.15625        0.851852        0.2031433095238095        0        
C2        C        0.21875        0.851852        0.2031433095238095        0        
C2        C        0.28125        0.851852        0.2031433095238095        0        
C2        C        0.34375        0.851852        0.2031433095238095        0        
C2        C        0.40625        0.851852        0.2031433095238095        0        
C2        C        0.46875        0.851852        0.2031433095238095        0        
C2        C        0.53125        0.851852        0.2031433095238095        0        
C2        C        0.59375        0.851852        0.2031433095238095        0        
C2        C        0.65625        0.851852        0.2031433095238095        0        
C2        C        0.71875        0.851852        0.2031433095238095        0        
C2        C        0.78125        0.851852        0.2031433095238095        0        
C2        C        0.84375        0.851852        0.2031433095238095        0        
C2        C        0.9062500000000001        0.851852        0.2031433095238095        0        
C2        C        0.9687500000000001        0.851852        0.2031433095238095        0        
C3        C        0.0        0.87037        0.2031433095238095        0        
C3        C        0.0625        0.87037        0.2031433095238095        0        
C3        C        0.125        0.87037        0.2031433095238095        0        
C3        C        0.1875        0.87037        0.2031433095238095        0        
C3        C        0.25        0.87037        0.2031433095238095        0        
C3        C        0.3125        0.87037        0.2031433095238095        0        
C3        C        0.375        0.87037        0.2031433095238095        0        
C3        C        0.4375        0.87037        0.2031433095238095        0        
C3        C        0.5        0.87037        0.2031433095238095        0        
C3        C        0.5625        0.87037        0.2031433095238095        0        
C3        C        0.625        0.87037        0.2031433095238095        0        
C3        C        0.6875        0.87037        0.2031433095238095        0        
C3        C        0.75        0.87037        0.2031433095238095        0        
C3        C        0.8125        0.87037        0.2031433095238095        0        
C3        C        0.875        0.87037        0.2031433095238095        0        
C3        C        0.9375        0.87037        0.2031433095238095        0        
C4        C        0.03125        0.814814        0.2031433095238095        0        
C4        C        0.09375        0.814814        0.2031433095238095        0        
C4        C        0.15625        0.814814        0.2031433095238095        0        
C4        C        0.21875        0.814814        0.2031433095238095        0        
C4        C        0.28125        0.814814        0.2031433095238095        0        
C4        C        0.34375        0.814814        0.2031433095238095        0        
C4        C        0.40625        0.814814        0.2031433095238095        0        
C4        C        0.46875        0.814814        0.2031433095238095        0        
C4        C        0.53125        0.814814        0.2031433095238095        0        
C4        C        0.59375        0.814814        0.2031433095238095        0        
C4        C        0.65625        0.814814        0.2031433095238095        0        
C4        C        0.71875        0.814814        0.2031433095238095        0        
C4        C        0.78125        0.814814        0.2031433095238095        0        
C4        C        0.84375        0.814814        0.2031433095238095        0        
C4        C        0.9062500000000001        0.814814        0.2031433095238095        0        
C4        C        0.9687500000000001        0.814814        0.2031433095238095        0        
C1        C        0.0        0.907408        0.2031433095238095        0        
C1        C        0.0625        0.907408        0.2031433095238095        0        
C1        C        0.125        0.907408        0.2031433095238095        0        
C1        C        0.1875        0.907408        0.2031433095238095        0        
C1        C        0.25        0.907408        0.2031433095238095        0        
C1        C        0.3125        0.907408        0.2031433095238095        0        
C1        C        0.375        0.907408        0.2031433095238095        0        
C1        C        0.4375        0.907408        0.2031433095238095        0        
C1        C        0.5        0.907408        0.2031433095238095        0        
C1        C        0.5625        0.907408        0.2031433095238095        0        
C1        C        0.625        0.907408        0.2031433095238095        0        
C1        C        0.6875        0.907408        0.2031433095238095        0        
C1        C        0.75        0.907408        0.2031433095238095        0        
C1        C        0.8125        0.907408        0.2031433095238095        0        
C1        C        0.875        0.907408        0.2031433095238095        0        
C1        C        0.9375        0.907408        0.2031433095238095        0        
C2        C        0.03125        0.962963        0.2031433095238095        0        
C2        C        0.09375        0.962963        0.2031433095238095        0        
C2        C        0.15625        0.962963        0.2031433095238095        0        
C2        C        0.21875        0.962963        0.2031433095238095        0        
C2        C        0.28125        0.962963        0.2031433095238095        0        
C2        C        0.34375        0.962963        0.2031433095238095        0        
C2        C        0.40625        0.962963        0.2031433095238095        0        
C2        C        0.46875        0.962963        0.2031433095238095        0        
C2        C        0.53125        0.962963        0.2031433095238095        0        
C2        C        0.59375        0.962963        0.2031433095238095        0        
C2        C        0.65625        0.962963        0.2031433095238095        0        
C2        C        0.71875        0.962963        0.2031433095238095        0        
C2        C        0.78125        0.962963        0.2031433095238095        0        
C2        C        0.84375        0.962963        0.2031433095238095        0        
C2        C        0.9062500000000001        0.962963        0.2031433095238095        0        
C2        C        0.9687500000000001        0.962963        0.2031433095238095        0        
C3        C        0.0        0.9814809999999999        0.2031433095238095        0        
C3        C        0.0625        0.9814809999999999        0.2031433095238095        0        
C3        C        0.125        0.9814809999999999        0.2031433095238095        0        
C3        C        0.1875        0.9814809999999999        0.2031433095238095        0        
C3        C        0.25        0.9814809999999999        0.2031433095238095        0        
C3        C        0.3125        0.9814809999999999        0.2031433095238095        0        
C3        C        0.375        0.9814809999999999        0.2031433095238095        0        
C3        C        0.4375        0.9814809999999999        0.2031433095238095        0        
C3        C        0.5        0.9814809999999999        0.2031433095238095        0        
C3        C        0.5625        0.9814809999999999        0.2031433095238095        0        
C3        C        0.625        0.9814809999999999        0.2031433095238095        0        
C3        C        0.6875        0.9814809999999999        0.2031433095238095        0        
C3        C        0.75        0.9814809999999999        0.2031433095238095        0        
C3        C        0.8125        0.9814809999999999        0.2031433095238095        0        
C3        C        0.875        0.9814809999999999        0.2031433095238095        0        
C3        C        0.9375        0.9814809999999999        0.2031433095238095        0        
C4        C        0.03125        0.925925        0.2031433095238095        0        
C4        C        0.09375        0.925925        0.2031433095238095        0        
C4        C        0.15625        0.925925        0.2031433095238095        0        
C4        C        0.21875        0.925925        0.2031433095238095        0        
C4        C        0.28125        0.925925        0.2031433095238095        0        
C4        C        0.34375        0.925925        0.2031433095238095        0        
C4        C        0.40625        0.925925        0.2031433095238095        0        
C4        C        0.46875        0.925925        0.2031433095238095        0        
C4        C        0.53125        0.925925        0.2031433095238095        0        
C4        C        0.59375        0.925925        0.2031433095238095        0        
C4        C        0.65625        0.925925        0.2031433095238095        0        
C4        C        0.71875        0.925925        0.2031433095238095        0        
C4        C        0.78125        0.925925        0.2031433095238095        0        
C4        C        0.84375        0.925925        0.2031433095238095        0        
C4        C        0.9062500000000001        0.925925        0.2031433095238095        0        
C4        C        0.9687500000000001        0.925925        0.2031433095238095        0        
C1        C        0.0        0.018519        0.33607930952380954        0        
C2        C        0.03125        0.074075        0.33607930952380954        0        
C3        C        0.0        0.092592        0.33607930952380954        0        
C4        C        0.03125        0.037037        0.33607930952380954        0        
C1        C        0.0        0.12963        0.33607930952380954        0        
C2        C        0.03125        0.185185        0.33607930952380954        0        
C3        C        0.0        0.203703        0.33607930952380954        0        
C4        C        0.03125        0.148148        0.33607930952380954        0        
C1        C        0.0        0.24074099999999998        0.33607930952380954        0        
C2        C        0.03125        0.296297        0.33607930952380954        0        
C3        C        0.0        0.314815        0.33607930952380954        0        
C4        C        0.03125        0.259259        0.33607930952380954        0        
C1        C        0.0        0.351852        0.33607930952380954        0        
C2        C        0.03125        0.407408        0.33607930952380954        0        
C3        C        0.0        0.42592500000000005        0.33607930952380954        0        
C4        C        0.03125        0.37037        0.33607930952380954        0        
C1        C        0.0        0.46296300000000007        0.33607930952380954        0        
C2        C        0.03125        0.518519        0.33607930952380954        0        
C3        C        0.0        0.537037        0.33607930952380954        0        
C4        C        0.03125        0.481481        0.33607930952380954        0        
C1        C        0.0        0.574075        0.33607930952380954        0        
C2        C        0.03125        0.62963        0.33607930952380954        0        
C3        C        0.0        0.648148        0.33607930952380954        0        
C4        C        0.03125        0.592592        0.33607930952380954        0        
C1        C        0.0625        0.018519        0.33607930952380954        0        
C2        C        0.09375        0.074075        0.33607930952380954        0        
C3        C        0.0625        0.092592        0.33607930952380954        0        
C4        C        0.09375        0.037037        0.33607930952380954        0        
C1        C        0.0625        0.12963        0.33607930952380954        0        
C2        C        0.09375        0.185185        0.33607930952380954        0        
C3        C        0.0625        0.203703        0.33607930952380954        0        
C4        C        0.09375        0.148148        0.33607930952380954        0        
C1        C        0.0625        0.24074099999999998        0.33607930952380954        0        
C2        C        0.09375        0.296297        0.33607930952380954        0        
C3        C        0.0625        0.314815        0.33607930952380954        0        
C4        C        0.09375        0.259259        0.33607930952380954        0        
C1        C        0.0625        0.351852        0.33607930952380954        0        
C2        C        0.09375        0.407408        0.33607930952380954        0        
C3        C        0.0625        0.42592500000000005        0.33607930952380954        0        
C4        C        0.09375        0.37037        0.33607930952380954        0        
C1        C        0.0625        0.46296300000000007        0.33607930952380954        0        
C2        C        0.09375        0.518519        0.33607930952380954        0        
C3        C        0.0625        0.537037        0.33607930952380954        0        
C4        C        0.09375        0.481481        0.33607930952380954        0        
C1        C        0.0625        0.574075        0.33607930952380954        0        
C2        C        0.09375        0.62963        0.33607930952380954        0        
C3        C        0.0625        0.648148        0.33607930952380954        0        
C4        C        0.09375        0.592592        0.33607930952380954        0        
C1        C        0.125        0.018519        0.33607930952380954        0        
C2        C        0.15625        0.074075        0.33607930952380954        0        
C3        C        0.125        0.092592        0.33607930952380954        0        
C4        C        0.15625        0.037037        0.33607930952380954        0        
C1        C        0.125        0.12963        0.33607930952380954        0        
C2        C        0.15625        0.185185        0.33607930952380954        0        
C3        C        0.125        0.203703        0.33607930952380954        0        
C4        C        0.15625        0.148148        0.33607930952380954        0        
C1        C        0.125        0.24074099999999998        0.33607930952380954        0        
C2        C        0.15625        0.296297        0.33607930952380954        0        
C3        C        0.125        0.314815        0.33607930952380954        0        
C4        C        0.15625        0.259259        0.33607930952380954        0        
C1        C        0.125        0.351852        0.33607930952380954        0        
C2        C        0.15625        0.407408        0.33607930952380954        0        
C3        C        0.125        0.42592500000000005        0.33607930952380954        0        
C4        C        0.15625        0.37037        0.33607930952380954        0        
C1        C        0.125        0.46296300000000007        0.33607930952380954        0        
C2        C        0.15625        0.518519        0.33607930952380954        0        
C3        C        0.125        0.537037        0.33607930952380954        0        
C4        C        0.15625        0.481481        0.33607930952380954        0        
C1        C        0.125        0.574075        0.33607930952380954        0        
C2        C        0.15625        0.62963        0.33607930952380954        0        
C3        C        0.125        0.648148        0.33607930952380954        0        
C4        C        0.15625        0.592592        0.33607930952380954        0        
C1        C        0.1875        0.018519        0.33607930952380954        0        
C2        C        0.21875        0.074075        0.33607930952380954        0        
C3        C        0.1875        0.092592        0.33607930952380954        0        
C4        C        0.21875        0.037037        0.33607930952380954        0        
C1        C        0.1875        0.12963        0.33607930952380954        0        
C2        C        0.21875        0.185185        0.33607930952380954        0        
C3        C        0.1875        0.203703        0.33607930952380954        0        
C4        C        0.21875        0.148148        0.33607930952380954        0        
C1        C        0.1875        0.24074099999999998        0.33607930952380954        0        
C2        C        0.21875        0.296297        0.33607930952380954        0        
C3        C        0.1875        0.314815        0.33607930952380954        0        
C4        C        0.21875        0.259259        0.33607930952380954        0        
C1        C        0.1875        0.351852        0.33607930952380954        0        
C2        C        0.21875        0.407408        0.33607930952380954        0        
C3        C        0.1875        0.42592500000000005        0.33607930952380954        0        
C4        C        0.21875        0.37037        0.33607930952380954        0        
C1        C        0.1875        0.46296300000000007        0.33607930952380954        0        
C2        C        0.21875        0.518519        0.33607930952380954        0        
C3        C        0.1875        0.537037        0.33607930952380954        0        
C4        C        0.21875        0.481481        0.33607930952380954        0        
C1        C        0.1875        0.574075        0.33607930952380954        0        
C2        C        0.21875        0.62963        0.33607930952380954        0        
C3        C        0.1875        0.648148        0.33607930952380954        0        
C4        C        0.21875        0.592592        0.33607930952380954        0        
C1        C        0.25        0.018519        0.33607930952380954        0        
C2        C        0.28125        0.074075        0.33607930952380954        0        
C3        C        0.25        0.092592        0.33607930952380954        0        
C4        C        0.28125        0.037037        0.33607930952380954        0        
C1        C        0.25        0.12963        0.33607930952380954        0        
C2        C        0.28125        0.185185        0.33607930952380954        0        
C3        C        0.25        0.203703        0.33607930952380954        0        
C4        C        0.28125        0.148148        0.33607930952380954        0        
C1        C        0.25        0.24074099999999998        0.33607930952380954        0        
C2        C        0.28125        0.296297        0.33607930952380954        0        
C3        C        0.25        0.314815        0.33607930952380954        0        
C4        C        0.28125        0.259259        0.33607930952380954        0        
C1        C        0.25        0.351852        0.33607930952380954        0        
C2        C        0.28125        0.407408        0.33607930952380954        0        
C3        C        0.25        0.42592500000000005        0.33607930952380954        0        
C4        C        0.28125        0.37037        0.33607930952380954        0        
C1        C        0.25        0.46296300000000007        0.33607930952380954        0        
C2        C        0.28125        0.518519        0.33607930952380954        0        
C3        C        0.25        0.537037        0.33607930952380954        0        
C4        C        0.28125        0.481481        0.33607930952380954        0        
C1        C        0.25        0.574075        0.33607930952380954        0        
C2        C        0.28125        0.62963        0.33607930952380954        0        
C3        C        0.25        0.648148        0.33607930952380954        0        
C4        C        0.28125        0.592592        0.33607930952380954        0        
C1        C        0.3125        0.018519        0.33607930952380954        0        
C2        C        0.34375        0.074075        0.33607930952380954        0        
C3        C        0.3125        0.092592        0.33607930952380954        0        
C4        C        0.34375        0.037037        0.33607930952380954        0        
C1        C        0.3125        0.12963        0.33607930952380954        0        
C2        C        0.34375        0.185185        0.33607930952380954        0        
C3        C        0.3125        0.203703        0.33607930952380954        0        
C4        C        0.34375        0.148148        0.33607930952380954        0        
C1        C        0.3125        0.24074099999999998        0.33607930952380954        0        
C2        C        0.34375        0.296297        0.33607930952380954        0        
C3        C        0.3125        0.314815        0.33607930952380954        0        
C4        C        0.34375        0.259259        0.33607930952380954        0        
C1        C        0.3125        0.351852        0.33607930952380954        0        
C2        C        0.34375        0.407408        0.33607930952380954        0        
C3        C        0.3125        0.42592500000000005        0.33607930952380954        0        
C4        C        0.34375        0.37037        0.33607930952380954        0        
C1        C        0.3125        0.46296300000000007        0.33607930952380954        0        
C2        C        0.34375        0.518519        0.33607930952380954        0        
C3        C        0.3125        0.537037        0.33607930952380954        0        
C4        C        0.34375        0.481481        0.33607930952380954        0        
C1        C        0.3125        0.574075        0.33607930952380954        0        
C2        C        0.34375        0.62963        0.33607930952380954        0        
C3        C        0.3125        0.648148        0.33607930952380954        0        
C4        C        0.34375        0.592592        0.33607930952380954        0        
C1        C        0.375        0.018519        0.33607930952380954        0        
C2        C        0.40625        0.074075        0.33607930952380954        0        
C3        C        0.375        0.092592        0.33607930952380954        0        
C4        C        0.40625        0.037037        0.33607930952380954        0        
C1        C        0.375        0.12963        0.33607930952380954        0        
C2        C        0.40625        0.185185        0.33607930952380954        0        
C3        C        0.375        0.203703        0.33607930952380954        0        
C4        C        0.40625        0.148148        0.33607930952380954        0        
C1        C        0.375        0.24074099999999998        0.33607930952380954        0        
C2        C        0.40625        0.296297        0.33607930952380954        0        
C3        C        0.375        0.314815        0.33607930952380954        0        
C4        C        0.40625        0.259259        0.33607930952380954        0        
C1        C        0.375        0.351852        0.33607930952380954        0        
C2        C        0.40625        0.407408        0.33607930952380954        0        
C3        C        0.375        0.42592500000000005        0.33607930952380954        0        
C4        C        0.40625        0.37037        0.33607930952380954        0        
C1        C        0.375        0.46296300000000007        0.33607930952380954        0        
C2        C        0.40625        0.518519        0.33607930952380954        0        
C3        C        0.375        0.537037        0.33607930952380954        0        
C4        C        0.40625        0.481481        0.33607930952380954        0        
C1        C        0.375        0.574075        0.33607930952380954        0        
C2        C        0.40625        0.62963        0.33607930952380954        0        
C3        C        0.375        0.648148        0.33607930952380954        0        
C4        C        0.40625        0.592592        0.33607930952380954        0        
C1        C        0.4375        0.018519        0.33607930952380954        0        
C2        C        0.46875        0.074075        0.33607930952380954        0        
C3        C        0.4375        0.092592        0.33607930952380954        0        
C4        C        0.46875        0.037037        0.33607930952380954        0        
C1        C        0.4375        0.12963        0.33607930952380954        0        
C2        C        0.46875        0.185185        0.33607930952380954        0        
C3        C        0.4375        0.203703        0.33607930952380954        0        
C4        C        0.46875        0.148148        0.33607930952380954        0        
C1        C        0.4375        0.24074099999999998        0.33607930952380954        0        
C2        C        0.46875        0.296297        0.33607930952380954        0        
C3        C        0.4375        0.314815        0.33607930952380954        0        
C4        C        0.46875        0.259259        0.33607930952380954        0        
C1        C        0.4375        0.351852        0.33607930952380954        0        
C2        C        0.46875        0.407408        0.33607930952380954        0        
C3        C        0.4375        0.42592500000000005        0.33607930952380954        0        
C4        C        0.46875        0.37037        0.33607930952380954        0        
C1        C        0.4375        0.46296300000000007        0.33607930952380954        0        
C2        C        0.46875        0.518519        0.33607930952380954        0        
C3        C        0.4375        0.537037        0.33607930952380954        0        
C4        C        0.46875        0.481481        0.33607930952380954        0        
C1        C        0.4375        0.574075        0.33607930952380954        0        
C2        C        0.46875        0.62963        0.33607930952380954        0        
C3        C        0.4375        0.648148        0.33607930952380954        0        
C4        C        0.46875        0.592592        0.33607930952380954        0        
C1        C        0.5        0.018519        0.33607930952380954        0        
C2        C        0.53125        0.074075        0.33607930952380954        0        
C3        C        0.5        0.092592        0.33607930952380954        0        
C4        C        0.53125        0.037037        0.33607930952380954        0        
C1        C        0.5        0.12963        0.33607930952380954        0        
C2        C        0.53125        0.185185        0.33607930952380954        0        
C3        C        0.5        0.203703        0.33607930952380954        0        
C4        C        0.53125        0.148148        0.33607930952380954        0        
C1        C        0.5        0.24074099999999998        0.33607930952380954        0        
C2        C        0.53125        0.296297        0.33607930952380954        0        
C3        C        0.5        0.314815        0.33607930952380954        0        
C4        C        0.53125        0.259259        0.33607930952380954        0        
C1        C        0.5        0.351852        0.33607930952380954        0        
C2        C        0.53125        0.407408        0.33607930952380954        0        
C3        C        0.5        0.42592500000000005        0.33607930952380954        0        
C4        C        0.53125        0.37037        0.33607930952380954        0        
C1        C        0.5        0.46296300000000007        0.33607930952380954        0        
C2        C        0.53125        0.518519        0.33607930952380954        0        
C3        C        0.5        0.537037        0.33607930952380954        0        
C4        C        0.53125        0.481481        0.33607930952380954        0        
C1        C        0.5        0.574075        0.33607930952380954        0        
C2        C        0.53125        0.62963        0.33607930952380954        0        
C3        C        0.5        0.648148        0.33607930952380954        0        
C4        C        0.53125        0.592592        0.33607930952380954        0        
C1        C        0.5625        0.018519        0.33607930952380954        0        
C2        C        0.59375        0.074075        0.33607930952380954        0        
C3        C        0.5625        0.092592        0.33607930952380954        0        
C4        C        0.59375        0.037037        0.33607930952380954        0        
C1        C        0.5625        0.12963        0.33607930952380954        0        
C2        C        0.59375        0.185185        0.33607930952380954        0        
C3        C        0.5625        0.203703        0.33607930952380954        0        
C4        C        0.59375        0.148148        0.33607930952380954        0        
C1        C        0.5625        0.24074099999999998        0.33607930952380954        0        
C2        C        0.59375        0.296297        0.33607930952380954        0        
C3        C        0.5625        0.314815        0.33607930952380954        0        
C4        C        0.59375        0.259259        0.33607930952380954        0        
C1        C        0.5625        0.351852        0.33607930952380954        0        
C2        C        0.59375        0.407408        0.33607930952380954        0        
C3        C        0.5625        0.42592500000000005        0.33607930952380954        0        
C4        C        0.59375        0.37037        0.33607930952380954        0        
C1        C        0.5625        0.46296300000000007        0.33607930952380954        0        
C2        C        0.59375        0.518519        0.33607930952380954        0        
C3        C        0.5625        0.537037        0.33607930952380954        0        
C4        C        0.59375        0.481481        0.33607930952380954        0        
C1        C        0.5625        0.574075        0.33607930952380954        0        
C2        C        0.59375        0.62963        0.33607930952380954        0        
C3        C        0.5625        0.648148        0.33607930952380954        0        
C4        C        0.59375        0.592592        0.33607930952380954        0        
C1        C        0.625        0.018519        0.33607930952380954        0        
C2        C        0.65625        0.074075        0.33607930952380954        0        
C3        C        0.625        0.092592        0.33607930952380954        0        
C4        C        0.65625        0.037037        0.33607930952380954        0        
C1        C        0.625        0.12963        0.33607930952380954        0        
C2        C        0.65625        0.185185        0.33607930952380954        0        
C3        C        0.625        0.203703        0.33607930952380954        0        
C4        C        0.65625        0.148148        0.33607930952380954        0        
C1        C        0.625        0.24074099999999998        0.33607930952380954        0        
C2        C        0.65625        0.296297        0.33607930952380954        0        
C3        C        0.625        0.314815        0.33607930952380954        0        
C4        C        0.65625        0.259259        0.33607930952380954        0        
C1        C        0.625        0.351852        0.33607930952380954        0        
C2        C        0.65625        0.407408        0.33607930952380954        0        
C3        C        0.625        0.42592500000000005        0.33607930952380954        0        
C4        C        0.65625        0.37037        0.33607930952380954        0        
C1        C        0.625        0.46296300000000007        0.33607930952380954        0        
C2        C        0.65625        0.518519        0.33607930952380954        0        
C3        C        0.625        0.537037        0.33607930952380954        0        
C4        C        0.65625        0.481481        0.33607930952380954        0        
C1        C        0.625        0.574075        0.33607930952380954        0        
C2        C        0.65625        0.62963        0.33607930952380954        0        
C3        C        0.625        0.648148        0.33607930952380954        0        
C4        C        0.65625        0.592592        0.33607930952380954        0        
C1        C        0.6875        0.018519        0.33607930952380954        0        
C2        C        0.71875        0.074075        0.33607930952380954        0        
C3        C        0.6875        0.092592        0.33607930952380954        0        
C4        C        0.71875        0.037037        0.33607930952380954        0        
C1        C        0.6875        0.12963        0.33607930952380954        0        
C2        C        0.71875        0.185185        0.33607930952380954        0        
C3        C        0.6875        0.203703        0.33607930952380954        0        
C4        C        0.71875        0.148148        0.33607930952380954        0        
C1        C        0.6875        0.24074099999999998        0.33607930952380954        0        
C2        C        0.71875        0.296297        0.33607930952380954        0        
C3        C        0.6875        0.314815        0.33607930952380954        0        
C4        C        0.71875        0.259259        0.33607930952380954        0        
C1        C        0.6875        0.351852        0.33607930952380954        0        
C2        C        0.71875        0.407408        0.33607930952380954        0        
C3        C        0.6875        0.42592500000000005        0.33607930952380954        0        
C4        C        0.71875        0.37037        0.33607930952380954        0        
C1        C        0.6875        0.46296300000000007        0.33607930952380954        0        
C2        C        0.71875        0.518519        0.33607930952380954        0        
C3        C        0.6875        0.537037        0.33607930952380954        0        
C4        C        0.71875        0.481481        0.33607930952380954        0        
C1        C        0.6875        0.574075        0.33607930952380954        0        
C2        C        0.71875        0.62963        0.33607930952380954        0        
C3        C        0.6875        0.648148        0.33607930952380954        0        
C4        C        0.71875        0.592592        0.33607930952380954        0        
C1        C        0.75        0.018519        0.33607930952380954        0        
C2        C        0.78125        0.074075        0.33607930952380954        0        
C3        C        0.75        0.092592        0.33607930952380954        0        
C4        C        0.78125        0.037037        0.33607930952380954        0        
C1        C        0.75        0.12963        0.33607930952380954        0        
C2        C        0.78125        0.185185        0.33607930952380954        0        
C3        C        0.75        0.203703        0.33607930952380954        0        
C4        C        0.78125        0.148148        0.33607930952380954        0        
C1        C        0.75        0.24074099999999998        0.33607930952380954        0        
C2        C        0.78125        0.296297        0.33607930952380954        0        
C3        C        0.75        0.314815        0.33607930952380954        0        
C4        C        0.78125        0.259259        0.33607930952380954        0        
C1        C        0.75        0.351852        0.33607930952380954        0        
C2        C        0.78125        0.407408        0.33607930952380954        0        
C3        C        0.75        0.42592500000000005        0.33607930952380954        0        
C4        C        0.78125        0.37037        0.33607930952380954        0        
C1        C        0.75        0.46296300000000007        0.33607930952380954        0        
C2        C        0.78125        0.518519        0.33607930952380954        0        
C3        C        0.75        0.537037        0.33607930952380954        0        
C4        C        0.78125        0.481481        0.33607930952380954        0        
C1        C        0.75        0.574075        0.33607930952380954        0        
C2        C        0.78125        0.62963        0.33607930952380954        0        
C3        C        0.75        0.648148        0.33607930952380954        0        
C4        C        0.78125        0.592592        0.33607930952380954        0        
C1        C        0.8125        0.018519        0.33607930952380954        0        
C2        C        0.84375        0.074075        0.33607930952380954        0        
C3        C        0.8125        0.092592        0.33607930952380954        0        
C4        C        0.84375        0.037037        0.33607930952380954        0        
C1        C        0.8125        0.12963        0.33607930952380954        0        
C2        C        0.84375        0.185185        0.33607930952380954        0        
C3        C        0.8125        0.203703        0.33607930952380954        0        
C4        C        0.84375        0.148148        0.33607930952380954        0        
C1        C        0.8125        0.24074099999999998        0.33607930952380954        0        
C2        C        0.84375        0.296297        0.33607930952380954        0        
C3        C        0.8125        0.314815        0.33607930952380954        0        
C4        C        0.84375        0.259259        0.33607930952380954        0        
C1        C        0.8125        0.351852        0.33607930952380954        0        
C2        C        0.84375        0.407408        0.33607930952380954        0        
C3        C        0.8125        0.42592500000000005        0.33607930952380954        0        
C4        C        0.84375        0.37037        0.33607930952380954        0        
C1        C        0.8125        0.46296300000000007        0.33607930952380954        0        
C2        C        0.84375        0.518519        0.33607930952380954        0        
C3        C        0.8125        0.537037        0.33607930952380954        0        
C4        C        0.84375        0.481481        0.33607930952380954        0        
C1        C        0.8125        0.574075        0.33607930952380954        0        
C2        C        0.84375        0.62963        0.33607930952380954        0        
C3        C        0.8125        0.648148        0.33607930952380954        0        
C4        C        0.84375        0.592592        0.33607930952380954        0        
C1        C        0.875        0.018519        0.33607930952380954        0        
C2        C        0.9062500000000001        0.074075        0.33607930952380954        0        
C3        C        0.875        0.092592        0.33607930952380954        0        
C4        C        0.9062500000000001        0.037037        0.33607930952380954        0        
C1        C        0.875        0.12963        0.33607930952380954        0        
C2        C        0.9062500000000001        0.185185        0.33607930952380954        0        
C3        C        0.875        0.203703        0.33607930952380954        0        
C4        C        0.9062500000000001        0.148148        0.33607930952380954        0        
C1        C        0.875        0.24074099999999998        0.33607930952380954        0        
C2        C        0.9062500000000001        0.296297        0.33607930952380954        0        
C3        C        0.875        0.314815        0.33607930952380954        0        
C4        C        0.9062500000000001        0.259259        0.33607930952380954        0        
C1        C        0.875        0.351852        0.33607930952380954        0        
C2        C        0.9062500000000001        0.407408        0.33607930952380954        0        
C3        C        0.875        0.42592500000000005        0.33607930952380954        0        
C4        C        0.9062500000000001        0.37037        0.33607930952380954        0        
C1        C        0.875        0.46296300000000007        0.33607930952380954        0        
C2        C        0.9062500000000001        0.518519        0.33607930952380954        0        
C3        C        0.875        0.537037        0.33607930952380954        0        
C4        C        0.9062500000000001        0.481481        0.33607930952380954        0        
C1        C        0.875        0.574075        0.33607930952380954        0        
C2        C        0.9062500000000001        0.62963        0.33607930952380954        0        
C3        C        0.875        0.648148        0.33607930952380954        0        
C4        C        0.9062500000000001        0.592592        0.33607930952380954        0        
C1        C        0.9375        0.018519        0.33607930952380954        0        
C2        C        0.9687500000000001        0.074075        0.33607930952380954        0        
C3        C        0.9375        0.092592        0.33607930952380954        0        
C4        C        0.9687500000000001        0.037037        0.33607930952380954        0        
C1        C        0.9375        0.12963        0.33607930952380954        0        
C2        C        0.9687500000000001        0.185185        0.33607930952380954        0        
C3        C        0.9375        0.203703        0.33607930952380954        0        
C4        C        0.9687500000000001        0.148148        0.33607930952380954        0        
C1        C        0.9375        0.24074099999999998        0.33607930952380954        0        
C2        C        0.9687500000000001        0.296297        0.33607930952380954        0        
C3        C        0.9375        0.314815        0.33607930952380954        0        
C4        C        0.9687500000000001        0.259259        0.33607930952380954        0        
C1        C        0.9375        0.351852        0.33607930952380954        0        
C2        C        0.9687500000000001        0.407408        0.33607930952380954        0        
C3        C        0.9375        0.42592500000000005        0.33607930952380954        0        
C4        C        0.9687500000000001        0.37037        0.33607930952380954        0        
C1        C        0.9375        0.46296300000000007        0.33607930952380954        0        
C2        C        0.9687500000000001        0.518519        0.33607930952380954        0        
C3        C        0.9375        0.537037        0.33607930952380954        0        
C4        C        0.9687500000000001        0.481481        0.33607930952380954        0        
C1        C        0.9375        0.574075        0.33607930952380954        0        
C2        C        0.9687500000000001        0.62963        0.33607930952380954        0        
C3        C        0.9375        0.648148        0.33607930952380954        0        
C4        C        0.9687500000000001        0.592592        0.33607930952380954        0        
C1        C        0.0        0.685186        0.33607930952380954        0        
C1        C        0.0625        0.685186        0.33607930952380954        0        
C1        C        0.125        0.685186        0.33607930952380954        0        
C1        C        0.1875        0.685186        0.33607930952380954        0        
C1        C        0.25        0.685186        0.33607930952380954        0        
C1        C        0.3125        0.685186        0.33607930952380954        0        
C1        C        0.375        0.685186        0.33607930952380954        0        
C1        C        0.4375        0.685186        0.33607930952380954        0        
C1        C        0.5        0.685186        0.33607930952380954        0        
C1        C        0.5625        0.685186        0.33607930952380954        0        
C1        C        0.625        0.685186        0.33607930952380954        0        
C1        C        0.6875        0.685186        0.33607930952380954        0        
C1        C        0.75        0.685186        0.33607930952380954        0        
C1        C        0.8125        0.685186        0.33607930952380954        0        
C1        C        0.875        0.685186        0.33607930952380954        0        
C1        C        0.9375        0.685186        0.33607930952380954        0        
C2        C        0.03125        0.740741        0.33607930952380954        0        
C2        C        0.09375        0.740741        0.33607930952380954        0        
C2        C        0.15625        0.740741        0.33607930952380954        0        
C2        C        0.21875        0.740741        0.33607930952380954        0        
C2        C        0.28125        0.740741        0.33607930952380954        0        
C2        C        0.34375        0.740741        0.33607930952380954        0        
C2        C        0.40625        0.740741        0.33607930952380954        0        
C2        C        0.46875        0.740741        0.33607930952380954        0        
C2        C        0.53125        0.740741        0.33607930952380954        0        
C2        C        0.59375        0.740741        0.33607930952380954        0        
C2        C        0.65625        0.740741        0.33607930952380954        0        
C2        C        0.71875        0.740741        0.33607930952380954        0        
C2        C        0.78125        0.740741        0.33607930952380954        0        
C2        C        0.84375        0.740741        0.33607930952380954        0        
C2        C        0.9062500000000001        0.740741        0.33607930952380954        0        
C2        C        0.9687500000000001        0.740741        0.33607930952380954        0        
C3        C        0.0        0.759259        0.33607930952380954        0        
C3        C        0.0625        0.759259        0.33607930952380954        0        
C3        C        0.125        0.759259        0.33607930952380954        0        
C3        C        0.1875        0.759259        0.33607930952380954        0        
C3        C        0.25        0.759259        0.33607930952380954        0        
C3        C        0.3125        0.759259        0.33607930952380954        0        
C3        C        0.375        0.759259        0.33607930952380954        0        
C3        C        0.4375        0.759259        0.33607930952380954        0        
C3        C        0.5        0.759259        0.33607930952380954        0        
C3        C        0.5625        0.759259        0.33607930952380954        0        
C3        C        0.625        0.759259        0.33607930952380954        0        
C3        C        0.6875        0.759259        0.33607930952380954        0        
C3        C        0.75        0.759259        0.33607930952380954        0        
C3        C        0.8125        0.759259        0.33607930952380954        0        
C3        C        0.875        0.759259        0.33607930952380954        0        
C3        C        0.9375        0.759259        0.33607930952380954        0        
C4        C        0.03125        0.703703        0.33607930952380954        0        
C4        C        0.09375        0.703703        0.33607930952380954        0        
C4        C        0.15625        0.703703        0.33607930952380954        0        
C4        C        0.21875        0.703703        0.33607930952380954        0        
C4        C        0.28125        0.703703        0.33607930952380954        0        
C4        C        0.34375        0.703703        0.33607930952380954        0        
C4        C        0.40625        0.703703        0.33607930952380954        0        
C4        C        0.46875        0.703703        0.33607930952380954        0        
C4        C        0.53125        0.703703        0.33607930952380954        0        
C4        C        0.59375        0.703703        0.33607930952380954        0        
C4        C        0.65625        0.703703        0.33607930952380954        0        
C4        C        0.71875        0.703703        0.33607930952380954        0        
C4        C        0.78125        0.703703        0.33607930952380954        0        
C4        C        0.84375        0.703703        0.33607930952380954        0        
C4        C        0.9062500000000001        0.703703        0.33607930952380954        0        
C4        C        0.9687500000000001        0.703703        0.33607930952380954        0        
C1        C        0.0        0.796297        0.33607930952380954        0        
C1        C        0.0625        0.796297        0.33607930952380954        0        
C1        C        0.125        0.796297        0.33607930952380954        0        
C1        C        0.1875        0.796297        0.33607930952380954        0        
C1        C        0.25        0.796297        0.33607930952380954        0        
C1        C        0.3125        0.796297        0.33607930952380954        0        
C1        C        0.375        0.796297        0.33607930952380954        0        
C1        C        0.4375        0.796297        0.33607930952380954        0        
C1        C        0.5        0.796297        0.33607930952380954        0        
C1        C        0.5625        0.796297        0.33607930952380954        0        
C1        C        0.625        0.796297        0.33607930952380954        0        
C1        C        0.6875        0.796297        0.33607930952380954        0        
C1        C        0.75        0.796297        0.33607930952380954        0        
C1        C        0.8125        0.796297        0.33607930952380954        0        
C1        C        0.875        0.796297        0.33607930952380954        0        
C1        C        0.9375        0.796297        0.33607930952380954        0        
C2        C        0.03125        0.851852        0.33607930952380954        0        
C2        C        0.09375        0.851852        0.33607930952380954        0        
C2        C        0.15625        0.851852        0.33607930952380954        0        
C2        C        0.21875        0.851852        0.33607930952380954        0        
C2        C        0.28125        0.851852        0.33607930952380954        0        
C2        C        0.34375        0.851852        0.33607930952380954        0        
C2        C        0.40625        0.851852        0.33607930952380954        0        
C2        C        0.46875        0.851852        0.33607930952380954        0        
C2        C        0.53125        0.851852        0.33607930952380954        0        
C2        C        0.59375        0.851852        0.33607930952380954        0        
C2        C        0.65625        0.851852        0.33607930952380954        0        
C2        C        0.71875        0.851852        0.33607930952380954        0        
C2        C        0.78125        0.851852        0.33607930952380954        0        
C2        C        0.84375        0.851852        0.33607930952380954        0        
C2        C        0.9062500000000001        0.851852        0.33607930952380954        0        
C2        C        0.9687500000000001        0.851852        0.33607930952380954        0        
C3        C        0.0        0.87037        0.33607930952380954        0        
C3        C        0.0625        0.87037        0.33607930952380954        0        
C3        C        0.125        0.87037        0.33607930952380954        0        
C3        C        0.1875        0.87037        0.33607930952380954        0        
C3        C        0.25        0.87037        0.33607930952380954        0        
C3        C        0.3125        0.87037        0.33607930952380954        0        
C3        C        0.375        0.87037        0.33607930952380954        0        
C3        C        0.4375        0.87037        0.33607930952380954        0        
C3        C        0.5        0.87037        0.33607930952380954        0        
C3        C        0.5625        0.87037        0.33607930952380954        0        
C3        C        0.625        0.87037        0.33607930952380954        0        
C3        C        0.6875        0.87037        0.33607930952380954        0        
C3        C        0.75        0.87037        0.33607930952380954        0        
C3        C        0.8125        0.87037        0.33607930952380954        0        
C3        C        0.875        0.87037        0.33607930952380954        0        
C3        C        0.9375        0.87037        0.33607930952380954        0        
C4        C        0.03125        0.814814        0.33607930952380954        0        
C4        C        0.09375        0.814814        0.33607930952380954        0        
C4        C        0.15625        0.814814        0.33607930952380954        0        
C4        C        0.21875        0.814814        0.33607930952380954        0        
C4        C        0.28125        0.814814        0.33607930952380954        0        
C4        C        0.34375        0.814814        0.33607930952380954        0        
C4        C        0.40625        0.814814        0.33607930952380954        0        
C4        C        0.46875        0.814814        0.33607930952380954        0        
C4        C        0.53125        0.814814        0.33607930952380954        0        
C4        C        0.59375        0.814814        0.33607930952380954        0        
C4        C        0.65625        0.814814        0.33607930952380954        0        
C4        C        0.71875        0.814814        0.33607930952380954        0        
C4        C        0.78125        0.814814        0.33607930952380954        0        
C4        C        0.84375        0.814814        0.33607930952380954        0        
C4        C        0.9062500000000001        0.814814        0.33607930952380954        0        
C4        C        0.9687500000000001        0.814814        0.33607930952380954        0        
C1        C        0.0        0.907408        0.33607930952380954        0        
C1        C        0.0625        0.907408        0.33607930952380954        0        
C1        C        0.125        0.907408        0.33607930952380954        0        
C1        C        0.1875        0.907408        0.33607930952380954        0        
C1        C        0.25        0.907408        0.33607930952380954        0        
C1        C        0.3125        0.907408        0.33607930952380954        0        
C1        C        0.375        0.907408        0.33607930952380954        0        
C1        C        0.4375        0.907408        0.33607930952380954        0        
C1        C        0.5        0.907408        0.33607930952380954        0        
C1        C        0.5625        0.907408        0.33607930952380954        0        
C1        C        0.625        0.907408        0.33607930952380954        0        
C1        C        0.6875        0.907408        0.33607930952380954        0        
C1        C        0.75        0.907408        0.33607930952380954        0        
C1        C        0.8125        0.907408        0.33607930952380954        0        
C1        C        0.875        0.907408        0.33607930952380954        0        
C1        C        0.9375        0.907408        0.33607930952380954        0        
C2        C        0.03125        0.962963        0.33607930952380954        0        
C2        C        0.09375        0.962963        0.33607930952380954        0        
C2        C        0.15625        0.962963        0.33607930952380954        0        
C2        C        0.21875        0.962963        0.33607930952380954        0        
C2        C        0.28125        0.962963        0.33607930952380954        0        
C2        C        0.34375        0.962963        0.33607930952380954        0        
C2        C        0.40625        0.962963        0.33607930952380954        0        
C2        C        0.46875        0.962963        0.33607930952380954        0        
C2        C        0.53125        0.962963        0.33607930952380954        0        
C2        C        0.59375        0.962963        0.33607930952380954        0        
C2        C        0.65625        0.962963        0.33607930952380954        0        
C2        C        0.71875        0.962963        0.33607930952380954        0        
C2        C        0.78125        0.962963        0.33607930952380954        0        
C2        C        0.84375        0.962963        0.33607930952380954        0        
C2        C        0.9062500000000001        0.962963        0.33607930952380954        0        
C2        C        0.9687500000000001        0.962963        0.33607930952380954        0        
C3        C        0.0        0.9814809999999999        0.33607930952380954        0        
C3        C        0.0625        0.9814809999999999        0.33607930952380954        0        
C3        C        0.125        0.9814809999999999        0.33607930952380954        0        
C3        C        0.1875        0.9814809999999999        0.33607930952380954        0        
C3        C        0.25        0.9814809999999999        0.33607930952380954        0        
C3        C        0.3125        0.9814809999999999        0.33607930952380954        0        
C3        C        0.375        0.9814809999999999        0.33607930952380954        0        
C3        C        0.4375        0.9814809999999999        0.33607930952380954        0        
C3        C        0.5        0.9814809999999999        0.33607930952380954        0        
C3        C        0.5625        0.9814809999999999        0.33607930952380954        0        
C3        C        0.625        0.9814809999999999        0.33607930952380954        0        
C3        C        0.6875        0.9814809999999999        0.33607930952380954        0        
C3        C        0.75        0.9814809999999999        0.33607930952380954        0        
C3        C        0.8125        0.9814809999999999        0.33607930952380954        0        
C3        C        0.875        0.9814809999999999        0.33607930952380954        0        
C3        C        0.9375        0.9814809999999999        0.33607930952380954        0        
C4        C        0.03125        0.925925        0.33607930952380954        0        
C4        C        0.09375        0.925925        0.33607930952380954        0        
C4        C        0.15625        0.925925        0.33607930952380954        0        
C4        C        0.21875        0.925925        0.33607930952380954        0        
C4        C        0.28125        0.925925        0.33607930952380954        0        
C4        C        0.34375        0.925925        0.33607930952380954        0        
C4        C        0.40625        0.925925        0.33607930952380954        0        
C4        C        0.46875        0.925925        0.33607930952380954        0        
C4        C        0.53125        0.925925        0.33607930952380954        0        
C4        C        0.59375        0.925925        0.33607930952380954        0        
C4        C        0.65625        0.925925        0.33607930952380954        0        
C4        C        0.71875        0.925925        0.33607930952380954        0        
C4        C        0.78125        0.925925        0.33607930952380954        0        
C4        C        0.84375        0.925925        0.33607930952380954        0        
C4        C        0.9062500000000001        0.925925        0.33607930952380954        0        
C4        C        0.9687500000000001        0.925925        0.33607930952380954        0        
O_CO        O        0.0        0.018519        0.013341230158730157        -0.5        
O_OH        O        0.0        0.203703        0.013341230158730157        -0.64        
H_OH        H        0.009408870468065952        0.22507504956963442        0.0        0.44        
O_OH        O        0.0        0.351852        0.013341230158730157        -0.64        
H_OH        H        -0.003294109181818101        0.3750603637236478        0.0        0.44        
O_CO        O        0.0        0.537037        0.013341230158730157        -0.5        
O_CO        O        0.25        0.018519        0.013341230158730157        -0.5        
O_CO        O        0.25        0.203703        0.013341230158730157        -0.5        
O_CO        O        0.25        0.351852        0.013341230158730157        -0.5        
O_OH        O        0.25        0.537037        0.013341230158730157        -0.64        
H_OH        H        0.23273040318075758        0.5523910076443233        0.0        0.44        
O_CO        O        0.5        0.018519        0.013341230158730157        -0.5        
O_OH        O        0.5        0.203703        0.013341230158730157        -0.64        
H_OH        H        0.4781744975406953        0.21063328215628707        0.0        0.44        
O_OH        O        0.5        0.351852        0.013341230158730157        -0.64        
H_OH        H        0.5038828150098965        0.374964231602706        0.0        0.44        
O_CO        O        0.5        0.537037        0.013341230158730157        -0.5        
O_OH        O        0.75        0.018519        0.013341230158730157        -0.64        
H_OH        H        0.7714140174854852        0.02669093475845233        0.0        0.44        
O_CO        O        0.75        0.203703        0.013341230158730157        -0.5        
O_OH        O        0.75        0.351852        0.013341230158730157        -0.64        
H_OH        H        0.766197598374505        0.3683915484036292        0.0        0.44        
O_OH        O        0.75        0.537037        0.013341230158730157        -0.64        
H_OH        H        0.7537279859241646        0.5601760828704136        0.0        0.44        
O_OH        O        0.0        0.685186        0.013341230158730157        -0.64        
H_OH        H        -0.019440057186205575        0.6975056124727437        0.0        0.44        
O_OH        O        0.25        0.685186        0.013341230158730157        -0.64        
H_OH        H        0.2725651560445872        0.688849992572942        0.0        0.44        
O_CO        O        0.5        0.685186        0.013341230158730157        -0.5        
O_CO        O        0.75        0.685186        0.013341230158730157        -0.5        
O_OH        O        0.0        0.87037        0.013341230158730157        -0.64        
H_OH        H        0.022516174684934137        0.8743388840494823        0.0        0.44        
O_CO        O        0.25        0.87037        0.013341230158730157        -0.5        
O_CO        O        0.5        0.87037        0.013341230158730157        -0.5        
O_OH        O        0.75        0.87037        0.013341230158730157        -0.64        
H_OH        H        0.7721149724448743        0.8762541806080395        0.0        0.44        
O_CO        O        0.0        0.018519        0.39294440476190473        -0.5        
O_OH        O        0.0        0.203703        0.39294440476190473        -0.64        
H_OH        H        -0.02088407682995317        0.21321113065816802        0.40628563492063496        0.44        
O_OH        O        0.0        0.351852        0.39294440476190473        -0.64        
H_OH        H        -0.022657090433811672        0.35485919265284716        0.40628563492063496        0.44        
O_CO        O        0.0        0.537037        0.39294440476190473        -0.5        
O_CO        O        0.25        0.018519        0.39294440476190473        -0.5        
O_CO        O        0.25        0.203703        0.39294440476190473        -0.5        
O_CO        O        0.25        0.351852        0.39294440476190473        -0.5        
O_OH        O        0.25        0.537037        0.39294440476190473        -0.64        
H_OH        H        0.22909929765180678        0.5465065512017957        0.40628563492063496        0.44        
O_CO        O        0.5        0.018519        0.39294440476190473        -0.5        
O_OH        O        0.5        0.203703        0.39294440476190473        -0.64        
H_OH        H        0.5223194838740126        0.2087076252862586        0.40628563492063496        0.44        
O_OH        O        0.5        0.351852        0.39294440476190473        -0.64        
H_OH        H        0.48332722960902147        0.3678861967382927        0.40628563492063496        0.44        
O_CO        O        0.5        0.537037        0.39294440476190473        -0.5        
O_OH        O        0.75        0.018519        0.39294440476190473        -0.64        
H_OH        H        0.744124064448811        0.041183425851570456        0.40628563492063496        0.44        
O_CO        O        0.75        0.203703        0.39294440476190473        -0.5        
O_OH        O        0.75        0.351852        0.39294440476190473        -0.64        
H_OH        H        0.7535056590200157        0.3750276790487406        0.40628563492063496        0.44        
O_OH        O        0.75        0.537037        0.39294440476190473        -0.64        
H_OH        H        0.7534748436436361        0.5602175695328613        0.40628563492063496        0.44        
O_OH        O        0.0        0.685186        0.39294440476190473        -0.64        
H_OH        H        -0.0008000961885049711        0.7086250631978934        0.40628563492063496        0.44        
O_OH        O        0.25        0.685186        0.39294440476190473        -0.64        
H_OH        H        0.2690801758485269        0.6980849528766878        0.40628563492063496        0.44        
O_CO        O        0.5        0.685186        0.39294440476190473        -0.5        
O_CO        O        0.75        0.685186        0.39294440476190473        -0.5        
O_OH        O        0.0        0.87037        0.39294440476190473        -0.64        
H_OH        H        0.021982854604384275        0.876754654347549        0.40628563492063496        0.44        
O_CO        O        0.25        0.87037        0.39294440476190473        -0.5        
O_CO        O        0.5        0.87037        0.39294440476190473        -0.5        
O_OH        O        0.75        0.87037        0.39294440476190473        -0.64        
H_OH        H        0.7273610374790248        0.8735177932179459        0.40628563492063496        0.44        
