data_graphite_ortho

_audit_creation_method RASPA-1.0
_audit_creation_date 2012-2-3
_audit_author_name 'David Dubbeldam'

_cell_length_a    31.98    
_cell_length_b    38.34    
_cell_length_c    28.9    
_cell_angle_alpha 90
_cell_angle_beta  90
_cell_angle_gamma 90
_cell_volume      35434.67      

_symmetry_cell_setting          triclinic
_symmetry_space_group_name_Hall 'P 1'
_symmetry_space_group_name_H-M  'P 1'
_symmetry_Int_Tables_number     1

_symmetry_equiv_pos_as_xyz 'x,y,z'

loop_
_atom_site_label
_atom_site_type_symbol
_atom_site_fract_x
_atom_site_fract_y
_atom_site_fract_z
_atom_site_charge
C1        C        0.0        0.018519        0.0        0        
C2        C        0.038462        0.074075        0.0        0        
C3        C        0.0        0.092592        0.0        0        
C4        C        0.038462        0.037037        0.0        0        
C1        C        0.0        0.12963        0.0        0        
C2        C        0.038462        0.185185        0.0        0        
C3        C        0.0        0.203703        0.0        0        
C4        C        0.038462        0.148148        0.0        0        
C1        C        0.0        0.24074099999999998        0.0        0        
C2        C        0.038462        0.296297        0.0        0        
C3        C        0.0        0.314815        0.0        0        
C4        C        0.038462        0.259259        0.0        0        
C1        C        0.0        0.351852        0.0        0        
C2        C        0.038462        0.407408        0.0        0        
C3        C        0.0        0.42592500000000005        0.0        0        
C4        C        0.038462        0.37037        0.0        0        
C1        C        0.0        0.46296300000000007        0.0        0        
C2        C        0.038462        0.518519        0.0        0        
C3        C        0.0        0.537037        0.0        0        
C4        C        0.038462        0.481481        0.0        0        
C1        C        0.0        0.574075        0.0        0        
C2        C        0.038462        0.62963        0.0        0        
C3        C        0.0        0.648148        0.0        0        
C4        C        0.038462        0.592592        0.0        0        
C1        C        0.076923        0.018519        0.0        0        
C2        C        0.115385        0.074075        0.0        0        
C3        C        0.076923        0.092592        0.0        0        
C4        C        0.115385        0.037037        0.0        0        
C1        C        0.076923        0.12963        0.0        0        
C2        C        0.115385        0.185185        0.0        0        
C3        C        0.076923        0.203703        0.0        0        
C4        C        0.115385        0.148148        0.0        0        
C1        C        0.076923        0.24074099999999998        0.0        0        
C2        C        0.115385        0.296297        0.0        0        
C3        C        0.076923        0.314815        0.0        0        
C4        C        0.115385        0.259259        0.0        0        
C1        C        0.076923        0.351852        0.0        0        
C2        C        0.115385        0.407408        0.0        0        
C3        C        0.076923        0.42592500000000005        0.0        0        
C4        C        0.115385        0.37037        0.0        0        
C1        C        0.076923        0.46296300000000007        0.0        0        
C2        C        0.115385        0.518519        0.0        0        
C3        C        0.076923        0.537037        0.0        0        
C4        C        0.115385        0.481481        0.0        0        
C1        C        0.076923        0.574075        0.0        0        
C2        C        0.115385        0.62963        0.0        0        
C3        C        0.076923        0.648148        0.0        0        
C4        C        0.115385        0.592592        0.0        0        
C1        C        0.153846        0.018519        0.0        0        
C2        C        0.192308        0.074075        0.0        0        
C3        C        0.153846        0.092592        0.0        0        
C4        C        0.192308        0.037037        0.0        0        
C1        C        0.153846        0.12963        0.0        0        
C2        C        0.192308        0.185185        0.0        0        
C3        C        0.153846        0.203703        0.0        0        
C4        C        0.192308        0.148148        0.0        0        
C1        C        0.153846        0.24074099999999998        0.0        0        
C2        C        0.192308        0.296297        0.0        0        
C3        C        0.153846        0.314815        0.0        0        
C4        C        0.192308        0.259259        0.0        0        
C1        C        0.153846        0.351852        0.0        0        
C2        C        0.192308        0.407408        0.0        0        
C3        C        0.153846        0.42592500000000005        0.0        0        
C4        C        0.192308        0.37037        0.0        0        
C1        C        0.153846        0.46296300000000007        0.0        0        
C2        C        0.192308        0.518519        0.0        0        
C3        C        0.153846        0.537037        0.0        0        
C4        C        0.192308        0.481481        0.0        0        
C1        C        0.153846        0.574075        0.0        0        
C2        C        0.192308        0.62963        0.0        0        
C3        C        0.153846        0.648148        0.0        0        
C4        C        0.192308        0.592592        0.0        0        
C1        C        0.230769        0.018519        0.0        0        
C2        C        0.269231        0.074075        0.0        0        
C3        C        0.230769        0.092592        0.0        0        
C4        C        0.269231        0.037037        0.0        0        
C1        C        0.230769        0.12963        0.0        0        
C2        C        0.269231        0.185185        0.0        0        
C3        C        0.230769        0.203703        0.0        0        
C4        C        0.269231        0.148148        0.0        0        
C1        C        0.230769        0.24074099999999998        0.0        0        
C2        C        0.269231        0.296297        0.0        0        
C3        C        0.230769        0.314815        0.0        0        
C4        C        0.269231        0.259259        0.0        0        
C1        C        0.230769        0.351852        0.0        0        
C2        C        0.269231        0.407408        0.0        0        
C3        C        0.230769        0.42592500000000005        0.0        0        
C4        C        0.269231        0.37037        0.0        0        
C1        C        0.230769        0.46296300000000007        0.0        0        
C2        C        0.269231        0.518519        0.0        0        
C3        C        0.230769        0.537037        0.0        0        
C4        C        0.269231        0.481481        0.0        0        
C1        C        0.230769        0.574075        0.0        0        
C2        C        0.269231        0.62963        0.0        0        
C3        C        0.230769        0.648148        0.0        0        
C4        C        0.269231        0.592592        0.0        0        
C1        C        0.307692        0.018519        0.0        0        
C2        C        0.346154        0.074075        0.0        0        
C3        C        0.307692        0.092592        0.0        0        
C4        C        0.346154        0.037037        0.0        0        
C1        C        0.307692        0.12963        0.0        0        
C2        C        0.346154        0.185185        0.0        0        
C3        C        0.307692        0.203703        0.0        0        
C4        C        0.346154        0.148148        0.0        0        
C1        C        0.307692        0.24074099999999998        0.0        0        
C2        C        0.346154        0.296297        0.0        0        
C3        C        0.307692        0.314815        0.0        0        
C4        C        0.346154        0.259259        0.0        0        
C1        C        0.307692        0.351852        0.0        0        
C2        C        0.346154        0.407408        0.0        0        
C3        C        0.307692        0.42592500000000005        0.0        0        
C4        C        0.346154        0.37037        0.0        0        
C1        C        0.307692        0.46296300000000007        0.0        0        
C2        C        0.346154        0.518519        0.0        0        
C3        C        0.307692        0.537037        0.0        0        
C4        C        0.346154        0.481481        0.0        0        
C1        C        0.307692        0.574075        0.0        0        
C2        C        0.346154        0.62963        0.0        0        
C3        C        0.307692        0.648148        0.0        0        
C4        C        0.346154        0.592592        0.0        0        
C1        C        0.384615        0.018519        0.0        0        
C2        C        0.423077        0.074075        0.0        0        
C3        C        0.384615        0.092592        0.0        0        
C4        C        0.423077        0.037037        0.0        0        
C1        C        0.384615        0.12963        0.0        0        
C2        C        0.423077        0.185185        0.0        0        
C3        C        0.384615        0.203703        0.0        0        
C4        C        0.423077        0.148148        0.0        0        
C1        C        0.384615        0.24074099999999998        0.0        0        
C2        C        0.423077        0.296297        0.0        0        
C3        C        0.384615        0.314815        0.0        0        
C4        C        0.423077        0.259259        0.0        0        
C1        C        0.384615        0.351852        0.0        0        
C2        C        0.423077        0.407408        0.0        0        
C3        C        0.384615        0.42592500000000005        0.0        0        
C4        C        0.423077        0.37037        0.0        0        
C1        C        0.384615        0.46296300000000007        0.0        0        
C2        C        0.423077        0.518519        0.0        0        
C3        C        0.384615        0.537037        0.0        0        
C4        C        0.423077        0.481481        0.0        0        
C1        C        0.384615        0.574075        0.0        0        
C2        C        0.423077        0.62963        0.0        0        
C3        C        0.384615        0.648148        0.0        0        
C4        C        0.423077        0.592592        0.0        0        
C1        C        0.461538        0.018519        0.0        0        
C2        C        0.5        0.074075        0.0        0        
C3        C        0.461538        0.092592        0.0        0        
C4        C        0.5        0.037037        0.0        0        
C1        C        0.461538        0.12963        0.0        0        
C2        C        0.5        0.185185        0.0        0        
C3        C        0.461538        0.203703        0.0        0        
C4        C        0.5        0.148148        0.0        0        
C1        C        0.461538        0.24074099999999998        0.0        0        
C2        C        0.5        0.296297        0.0        0        
C3        C        0.461538        0.314815        0.0        0        
C4        C        0.5        0.259259        0.0        0        
C1        C        0.461538        0.351852        0.0        0        
C2        C        0.5        0.407408        0.0        0        
C3        C        0.461538        0.42592500000000005        0.0        0        
C4        C        0.5        0.37037        0.0        0        
C1        C        0.461538        0.46296300000000007        0.0        0        
C2        C        0.5        0.518519        0.0        0        
C3        C        0.461538        0.537037        0.0        0        
C4        C        0.5        0.481481        0.0        0        
C1        C        0.461538        0.574075        0.0        0        
C2        C        0.5        0.62963        0.0        0        
C3        C        0.461538        0.648148        0.0        0        
C4        C        0.5        0.592592        0.0        0        
C1        C        0.538462        0.018519        0.0        0        
C2        C        0.576923        0.074075        0.0        0        
C3        C        0.538462        0.092592        0.0        0        
C4        C        0.576923        0.037037        0.0        0        
C1        C        0.538462        0.12963        0.0        0        
C2        C        0.576923        0.185185        0.0        0        
C3        C        0.538462        0.203703        0.0        0        
C4        C        0.576923        0.148148        0.0        0        
C1        C        0.538462        0.24074099999999998        0.0        0        
C2        C        0.576923        0.296297        0.0        0        
C3        C        0.538462        0.314815        0.0        0        
C4        C        0.576923        0.259259        0.0        0        
C1        C        0.538462        0.351852        0.0        0        
C2        C        0.576923        0.407408        0.0        0        
C3        C        0.538462        0.42592500000000005        0.0        0        
C4        C        0.576923        0.37037        0.0        0        
C1        C        0.538462        0.46296300000000007        0.0        0        
C2        C        0.576923        0.518519        0.0        0        
C3        C        0.538462        0.537037        0.0        0        
C4        C        0.576923        0.481481        0.0        0        
C1        C        0.538462        0.574075        0.0        0        
C2        C        0.576923        0.62963        0.0        0        
C3        C        0.538462        0.648148        0.0        0        
C4        C        0.576923        0.592592        0.0        0        
C1        C        0.615385        0.018519        0.0        0        
C2        C        0.653846        0.074075        0.0        0        
C3        C        0.615385        0.092592        0.0        0        
C4        C        0.653846        0.037037        0.0        0        
C1        C        0.615385        0.12963        0.0        0        
C2        C        0.653846        0.185185        0.0        0        
C3        C        0.615385        0.203703        0.0        0        
C4        C        0.653846        0.148148        0.0        0        
C1        C        0.615385        0.24074099999999998        0.0        0        
C2        C        0.653846        0.296297        0.0        0        
C3        C        0.615385        0.314815        0.0        0        
C4        C        0.653846        0.259259        0.0        0        
C1        C        0.615385        0.351852        0.0        0        
C2        C        0.653846        0.407408        0.0        0        
C3        C        0.615385        0.42592500000000005        0.0        0        
C4        C        0.653846        0.37037        0.0        0        
C1        C        0.615385        0.46296300000000007        0.0        0        
C2        C        0.653846        0.518519        0.0        0        
C3        C        0.615385        0.537037        0.0        0        
C4        C        0.653846        0.481481        0.0        0        
C1        C        0.615385        0.574075        0.0        0        
C2        C        0.653846        0.62963        0.0        0        
C3        C        0.615385        0.648148        0.0        0        
C4        C        0.653846        0.592592        0.0        0        
C1        C        0.692308        0.018519        0.0        0        
C2        C        0.730769        0.074075        0.0        0        
C3        C        0.692308        0.092592        0.0        0        
C4        C        0.730769        0.037037        0.0        0        
C1        C        0.692308        0.12963        0.0        0        
C2        C        0.730769        0.185185        0.0        0        
C3        C        0.692308        0.203703        0.0        0        
C4        C        0.730769        0.148148        0.0        0        
C1        C        0.692308        0.24074099999999998        0.0        0        
C2        C        0.730769        0.296297        0.0        0        
C3        C        0.692308        0.314815        0.0        0        
C4        C        0.730769        0.259259        0.0        0        
C1        C        0.692308        0.351852        0.0        0        
C2        C        0.730769        0.407408        0.0        0        
C3        C        0.692308        0.42592500000000005        0.0        0        
C4        C        0.730769        0.37037        0.0        0        
C1        C        0.692308        0.46296300000000007        0.0        0        
C2        C        0.730769        0.518519        0.0        0        
C3        C        0.692308        0.537037        0.0        0        
C4        C        0.730769        0.481481        0.0        0        
C1        C        0.692308        0.574075        0.0        0        
C2        C        0.730769        0.62963        0.0        0        
C3        C        0.692308        0.648148        0.0        0        
C4        C        0.730769        0.592592        0.0        0        
C1        C        0.769231        0.018519        0.0        0        
C2        C        0.807692        0.074075        0.0        0        
C3        C        0.769231        0.092592        0.0        0        
C4        C        0.807692        0.037037        0.0        0        
C1        C        0.769231        0.12963        0.0        0        
C2        C        0.807692        0.185185        0.0        0        
C3        C        0.769231        0.203703        0.0        0        
C4        C        0.807692        0.148148        0.0        0        
C1        C        0.769231        0.24074099999999998        0.0        0        
C2        C        0.807692        0.296297        0.0        0        
C3        C        0.769231        0.314815        0.0        0        
C4        C        0.807692        0.259259        0.0        0        
C1        C        0.769231        0.351852        0.0        0        
C2        C        0.807692        0.407408        0.0        0        
C3        C        0.769231        0.42592500000000005        0.0        0        
C4        C        0.807692        0.37037        0.0        0        
C1        C        0.769231        0.46296300000000007        0.0        0        
C2        C        0.807692        0.518519        0.0        0        
C3        C        0.769231        0.537037        0.0        0        
C4        C        0.807692        0.481481        0.0        0        
C1        C        0.769231        0.574075        0.0        0        
C2        C        0.807692        0.62963        0.0        0        
C3        C        0.769231        0.648148        0.0        0        
C4        C        0.807692        0.592592        0.0        0        
C1        C        0.846154        0.018519        0.0        0        
C2        C        0.884615        0.074075        0.0        0        
C3        C        0.846154        0.092592        0.0        0        
C4        C        0.884615        0.037037        0.0        0        
C1        C        0.846154        0.12963        0.0        0        
C2        C        0.884615        0.185185        0.0        0        
C3        C        0.846154        0.203703        0.0        0        
C4        C        0.884615        0.148148        0.0        0        
C1        C        0.846154        0.24074099999999998        0.0        0        
C2        C        0.884615        0.296297        0.0        0        
C3        C        0.846154        0.314815        0.0        0        
C4        C        0.884615        0.259259        0.0        0        
C1        C        0.846154        0.351852        0.0        0        
C2        C        0.884615        0.407408        0.0        0        
C3        C        0.846154        0.42592500000000005        0.0        0        
C4        C        0.884615        0.37037        0.0        0        
C1        C        0.846154        0.46296300000000007        0.0        0        
C2        C        0.884615        0.518519        0.0        0        
C3        C        0.846154        0.537037        0.0        0        
C4        C        0.884615        0.481481        0.0        0        
C1        C        0.846154        0.574075        0.0        0        
C2        C        0.884615        0.62963        0.0        0        
C3        C        0.846154        0.648148        0.0        0        
C4        C        0.884615        0.592592        0.0        0        
C1        C        0.923077        0.018519        0.0        0        
C2        C        0.961538        0.074075        0.0        0        
C3        C        0.923077        0.092592        0.0        0        
C4        C        0.961538        0.037037        0.0        0        
C1        C        0.923077        0.12963        0.0        0        
C2        C        0.961538        0.185185        0.0        0        
C3        C        0.923077        0.203703        0.0        0        
C4        C        0.961538        0.148148        0.0        0        
C1        C        0.923077        0.24074099999999998        0.0        0        
C2        C        0.961538        0.296297        0.0        0        
C3        C        0.923077        0.314815        0.0        0        
C4        C        0.961538        0.259259        0.0        0        
C1        C        0.923077        0.351852        0.0        0        
C2        C        0.961538        0.407408        0.0        0        
C3        C        0.923077        0.42592500000000005        0.0        0        
C4        C        0.961538        0.37037        0.0        0        
C1        C        0.923077        0.46296300000000007        0.0        0        
C2        C        0.961538        0.518519        0.0        0        
C3        C        0.923077        0.537037        0.0        0        
C4        C        0.961538        0.481481        0.0        0        
C1        C        0.923077        0.574075        0.0        0        
C2        C        0.961538        0.62963        0.0        0        
C3        C        0.923077        0.648148        0.0        0        
C4        C        0.961538        0.592592        0.0        0        
C1        C        1.0        0.018519        0.0        0        
C2        C        1.038462        0.074075        0.0        0        
C3        C        1.0        0.092592        0.0        0        
C4        C        1.038462        0.037037        0.0        0        
C1        C        1.0        0.12963        0.0        0        
C2        C        1.038462        0.185185        0.0        0        
C3        C        1.0        0.203703        0.0        0        
C4        C        1.038462        0.148148        0.0        0        
C1        C        1.0        0.24074099999999998        0.0        0        
C2        C        1.038462        0.296297        0.0        0        
C3        C        1.0        0.314815        0.0        0        
C4        C        1.038462        0.259259        0.0        0        
C1        C        1.0        0.351852        0.0        0        
C2        C        1.038462        0.407408        0.0        0        
C3        C        1.0        0.42592500000000005        0.0        0        
C4        C        1.038462        0.37037        0.0        0        
C1        C        1.0        0.46296300000000007        0.0        0        
C2        C        1.038462        0.518519        0.0        0        
C3        C        1.0        0.537037        0.0        0        
C4        C        1.038462        0.481481        0.0        0        
C1        C        1.0        0.574075        0.0        0        
C2        C        1.038462        0.62963        0.0        0        
C3        C        1.0        0.648148        0.0        0        
C4        C        1.038462        0.592592        0.0        0        
C1        C        0.0        0.685186        0.0        0        
C1        C        0.076923        0.685186        0.0        0        
C1        C        0.153846        0.685186        0.0        0        
C1        C        0.230769        0.685186        0.0        0        
C1        C        0.307692        0.685186        0.0        0        
C1        C        0.384615        0.685186        0.0        0        
C1        C        0.461538        0.685186        0.0        0        
C1        C        0.538462        0.685186        0.0        0        
C1        C        0.615385        0.685186        0.0        0        
C1        C        0.692308        0.685186        0.0        0        
C1        C        0.769231        0.685186        0.0        0        
C1        C        0.846154        0.685186        0.0        0        
C1        C        0.923077        0.685186        0.0        0        
C1        C        1.0        0.685186        0.0        0        
C2        C        0.038462        0.740741        0.0        0        
C2        C        0.115385        0.740741        0.0        0        
C2        C        0.192308        0.740741        0.0        0        
C2        C        0.269231        0.740741        0.0        0        
C2        C        0.346154        0.740741        0.0        0        
C2        C        0.423077        0.740741        0.0        0        
C2        C        0.5        0.740741        0.0        0        
C2        C        0.576923        0.740741        0.0        0        
C2        C        0.653846        0.740741        0.0        0        
C2        C        0.730769        0.740741        0.0        0        
C2        C        0.807692        0.740741        0.0        0        
C2        C        0.884615        0.740741        0.0        0        
C2        C        0.961538        0.740741        0.0        0        
C2        C        1.038462        0.740741        0.0        0        
C3        C        0.0        0.759259        0.0        0        
C3        C        0.076923        0.759259        0.0        0        
C3        C        0.153846        0.759259        0.0        0        
C3        C        0.230769        0.759259        0.0        0        
C3        C        0.307692        0.759259        0.0        0        
C3        C        0.384615        0.759259        0.0        0        
C3        C        0.461538        0.759259        0.0        0        
C3        C        0.538462        0.759259        0.0        0        
C3        C        0.615385        0.759259        0.0        0        
C3        C        0.692308        0.759259        0.0        0        
C3        C        0.769231        0.759259        0.0        0        
C3        C        0.846154        0.759259        0.0        0        
C3        C        0.923077        0.759259        0.0        0        
C3        C        1.0        0.759259        0.0        0        
C4        C        0.038462        0.703703        0.0        0        
C4        C        0.115385        0.703703        0.0        0        
C4        C        0.192308        0.703703        0.0        0        
C4        C        0.269231        0.703703        0.0        0        
C4        C        0.346154        0.703703        0.0        0        
C4        C        0.423077        0.703703        0.0        0        
C4        C        0.5        0.703703        0.0        0        
C4        C        0.576923        0.703703        0.0        0        
C4        C        0.653846        0.703703        0.0        0        
C4        C        0.730769        0.703703        0.0        0        
C4        C        0.807692        0.703703        0.0        0        
C4        C        0.884615        0.703703        0.0        0        
C4        C        0.961538        0.703703        0.0        0        
C4        C        1.038462        0.703703        0.0        0        
C1        C        0.0        0.796297        0.0        0        
C1        C        0.076923        0.796297        0.0        0        
C1        C        0.153846        0.796297        0.0        0        
C1        C        0.230769        0.796297        0.0        0        
C1        C        0.307692        0.796297        0.0        0        
C1        C        0.384615        0.796297        0.0        0        
C1        C        0.461538        0.796297        0.0        0        
C1        C        0.538462        0.796297        0.0        0        
C1        C        0.615385        0.796297        0.0        0        
C1        C        0.692308        0.796297        0.0        0        
C1        C        0.769231        0.796297        0.0        0        
C1        C        0.846154        0.796297        0.0        0        
C1        C        0.923077        0.796297        0.0        0        
C1        C        1.0        0.796297        0.0        0        
C2        C        0.038462        0.851852        0.0        0        
C2        C        0.115385        0.851852        0.0        0        
C2        C        0.192308        0.851852        0.0        0        
C2        C        0.269231        0.851852        0.0        0        
C2        C        0.346154        0.851852        0.0        0        
C2        C        0.423077        0.851852        0.0        0        
C2        C        0.5        0.851852        0.0        0        
C2        C        0.576923        0.851852        0.0        0        
C2        C        0.653846        0.851852        0.0        0        
C2        C        0.730769        0.851852        0.0        0        
C2        C        0.807692        0.851852        0.0        0        
C2        C        0.884615        0.851852        0.0        0        
C2        C        0.961538        0.851852        0.0        0        
C2        C        1.038462        0.851852        0.0        0        
C3        C        0.0        0.87037        0.0        0        
C3        C        0.076923        0.87037        0.0        0        
C3        C        0.153846        0.87037        0.0        0        
C3        C        0.230769        0.87037        0.0        0        
C3        C        0.307692        0.87037        0.0        0        
C3        C        0.384615        0.87037        0.0        0        
C3        C        0.461538        0.87037        0.0        0        
C3        C        0.538462        0.87037        0.0        0        
C3        C        0.615385        0.87037        0.0        0        
C3        C        0.692308        0.87037        0.0        0        
C3        C        0.769231        0.87037        0.0        0        
C3        C        0.846154        0.87037        0.0        0        
C3        C        0.923077        0.87037        0.0        0        
C3        C        1.0        0.87037        0.0        0        
C4        C        0.038462        0.814814        0.0        0        
C4        C        0.115385        0.814814        0.0        0        
C4        C        0.192308        0.814814        0.0        0        
C4        C        0.269231        0.814814        0.0        0        
C4        C        0.346154        0.814814        0.0        0        
C4        C        0.423077        0.814814        0.0        0        
C4        C        0.5        0.814814        0.0        0        
C4        C        0.576923        0.814814        0.0        0        
C4        C        0.653846        0.814814        0.0        0        
C4        C        0.730769        0.814814        0.0        0        
C4        C        0.807692        0.814814        0.0        0        
C4        C        0.884615        0.814814        0.0        0        
C4        C        0.961538        0.814814        0.0        0        
C4        C        1.038462        0.814814        0.0        0        
C1        C        0.0        0.907408        0.0        0        
C1        C        0.076923        0.907408        0.0        0        
C1        C        0.153846        0.907408        0.0        0        
C1        C        0.230769        0.907408        0.0        0        
C1        C        0.307692        0.907408        0.0        0        
C1        C        0.384615        0.907408        0.0        0        
C1        C        0.461538        0.907408        0.0        0        
C1        C        0.538462        0.907408        0.0        0        
C1        C        0.615385        0.907408        0.0        0        
C1        C        0.692308        0.907408        0.0        0        
C1        C        0.769231        0.907408        0.0        0        
C1        C        0.846154        0.907408        0.0        0        
C1        C        0.923077        0.907408        0.0        0        
C1        C        1.0        0.907408        0.0        0        
C2        C        0.038462        0.962963        0.0        0        
C2        C        0.115385        0.962963        0.0        0        
C2        C        0.192308        0.962963        0.0        0        
C2        C        0.269231        0.962963        0.0        0        
C2        C        0.346154        0.962963        0.0        0        
C2        C        0.423077        0.962963        0.0        0        
C2        C        0.5        0.962963        0.0        0        
C2        C        0.576923        0.962963        0.0        0        
C2        C        0.653846        0.962963        0.0        0        
C2        C        0.730769        0.962963        0.0        0        
C2        C        0.807692        0.962963        0.0        0        
C2        C        0.884615        0.962963        0.0        0        
C2        C        0.961538        0.962963        0.0        0        
C2        C        1.038462        0.962963        0.0        0        
C3        C        0.0        0.9814809999999999        0.0        0        
C3        C        0.076923        0.9814809999999999        0.0        0        
C3        C        0.153846        0.9814809999999999        0.0        0        
C3        C        0.230769        0.9814809999999999        0.0        0        
C3        C        0.307692        0.9814809999999999        0.0        0        
C3        C        0.384615        0.9814809999999999        0.0        0        
C3        C        0.461538        0.9814809999999999        0.0        0        
C3        C        0.538462        0.9814809999999999        0.0        0        
C3        C        0.615385        0.9814809999999999        0.0        0        
C3        C        0.692308        0.9814809999999999        0.0        0        
C3        C        0.769231        0.9814809999999999        0.0        0        
C3        C        0.846154        0.9814809999999999        0.0        0        
C3        C        0.923077        0.9814809999999999        0.0        0        
C3        C        1.0        0.9814809999999999        0.0        0        
C4        C        0.038462        0.925925        0.0        0        
C4        C        0.115385        0.925925        0.0        0        
C4        C        0.192308        0.925925        0.0        0        
C4        C        0.269231        0.925925        0.0        0        
C4        C        0.346154        0.925925        0.0        0        
C4        C        0.423077        0.925925        0.0        0        
C4        C        0.5        0.925925        0.0        0        
C4        C        0.576923        0.925925        0.0        0        
C4        C        0.653846        0.925925        0.0        0        
C4        C        0.730769        0.925925        0.0        0        
C4        C        0.807692        0.925925        0.0        0        
C4        C        0.884615        0.925925        0.0        0        
C4        C        0.961538        0.925925        0.0        0        
C4        C        1.038462        0.925925        0.0        0        
C1        C        0.0        0.018519        0.115917        0        
C2        C        0.038462        0.074075        0.115917        0        
C3        C        0.0        0.092592        0.115917        0        
C4        C        0.038462        0.037037        0.115917        0        
C1        C        0.0        0.12963        0.115917        0        
C2        C        0.038462        0.185185        0.115917        0        
C3        C        0.0        0.203703        0.115917        0        
C4        C        0.038462        0.148148        0.115917        0        
C1        C        0.0        0.24074099999999998        0.115917        0        
C2        C        0.038462        0.296297        0.115917        0        
C3        C        0.0        0.314815        0.115917        0        
C4        C        0.038462        0.259259        0.115917        0        
C1        C        0.0        0.351852        0.115917        0        
C2        C        0.038462        0.407408        0.115917        0        
C3        C        0.0        0.42592500000000005        0.115917        0        
C4        C        0.038462        0.37037        0.115917        0        
C1        C        0.0        0.46296300000000007        0.115917        0        
C2        C        0.038462        0.518519        0.115917        0        
C3        C        0.0        0.537037        0.115917        0        
C4        C        0.038462        0.481481        0.115917        0        
C1        C        0.0        0.574075        0.115917        0        
C2        C        0.038462        0.62963        0.115917        0        
C3        C        0.0        0.648148        0.115917        0        
C4        C        0.038462        0.592592        0.115917        0        
C1        C        0.076923        0.018519        0.115917        0        
C2        C        0.115385        0.074075        0.115917        0        
C3        C        0.076923        0.092592        0.115917        0        
C4        C        0.115385        0.037037        0.115917        0        
C1        C        0.076923        0.12963        0.115917        0        
C2        C        0.115385        0.185185        0.115917        0        
C3        C        0.076923        0.203703        0.115917        0        
C4        C        0.115385        0.148148        0.115917        0        
C1        C        0.076923        0.24074099999999998        0.115917        0        
C2        C        0.115385        0.296297        0.115917        0        
C3        C        0.076923        0.314815        0.115917        0        
C4        C        0.115385        0.259259        0.115917        0        
C1        C        0.076923        0.351852        0.115917        0        
C2        C        0.115385        0.407408        0.115917        0        
C3        C        0.076923        0.42592500000000005        0.115917        0        
C4        C        0.115385        0.37037        0.115917        0        
C1        C        0.076923        0.46296300000000007        0.115917        0        
C2        C        0.115385        0.518519        0.115917        0        
C3        C        0.076923        0.537037        0.115917        0        
C4        C        0.115385        0.481481        0.115917        0        
C1        C        0.076923        0.574075        0.115917        0        
C2        C        0.115385        0.62963        0.115917        0        
C3        C        0.076923        0.648148        0.115917        0        
C4        C        0.115385        0.592592        0.115917        0        
C1        C        0.153846        0.018519        0.115917        0        
C2        C        0.192308        0.074075        0.115917        0        
C3        C        0.153846        0.092592        0.115917        0        
C4        C        0.192308        0.037037        0.115917        0        
C1        C        0.153846        0.12963        0.115917        0        
C2        C        0.192308        0.185185        0.115917        0        
C3        C        0.153846        0.203703        0.115917        0        
C4        C        0.192308        0.148148        0.115917        0        
C1        C        0.153846        0.24074099999999998        0.115917        0        
C2        C        0.192308        0.296297        0.115917        0        
C3        C        0.153846        0.314815        0.115917        0        
C4        C        0.192308        0.259259        0.115917        0        
C1        C        0.153846        0.351852        0.115917        0        
C2        C        0.192308        0.407408        0.115917        0        
C3        C        0.153846        0.42592500000000005        0.115917        0        
C4        C        0.192308        0.37037        0.115917        0        
C1        C        0.153846        0.46296300000000007        0.115917        0        
C2        C        0.192308        0.518519        0.115917        0        
C3        C        0.153846        0.537037        0.115917        0        
C4        C        0.192308        0.481481        0.115917        0        
C1        C        0.153846        0.574075        0.115917        0        
C2        C        0.192308        0.62963        0.115917        0        
C3        C        0.153846        0.648148        0.115917        0        
C4        C        0.192308        0.592592        0.115917        0        
C1        C        0.230769        0.018519        0.115917        0        
C2        C        0.269231        0.074075        0.115917        0        
C3        C        0.230769        0.092592        0.115917        0        
C4        C        0.269231        0.037037        0.115917        0        
C1        C        0.230769        0.12963        0.115917        0        
C2        C        0.269231        0.185185        0.115917        0        
C3        C        0.230769        0.203703        0.115917        0        
C4        C        0.269231        0.148148        0.115917        0        
C1        C        0.230769        0.24074099999999998        0.115917        0        
C2        C        0.269231        0.296297        0.115917        0        
C3        C        0.230769        0.314815        0.115917        0        
C4        C        0.269231        0.259259        0.115917        0        
C1        C        0.230769        0.351852        0.115917        0        
C2        C        0.269231        0.407408        0.115917        0        
C3        C        0.230769        0.42592500000000005        0.115917        0        
C4        C        0.269231        0.37037        0.115917        0        
C1        C        0.230769        0.46296300000000007        0.115917        0        
C2        C        0.269231        0.518519        0.115917        0        
C3        C        0.230769        0.537037        0.115917        0        
C4        C        0.269231        0.481481        0.115917        0        
C1        C        0.230769        0.574075        0.115917        0        
C2        C        0.269231        0.62963        0.115917        0        
C3        C        0.230769        0.648148        0.115917        0        
C4        C        0.269231        0.592592        0.115917        0        
C1        C        0.307692        0.018519        0.115917        0        
C2        C        0.346154        0.074075        0.115917        0        
C3        C        0.307692        0.092592        0.115917        0        
C4        C        0.346154        0.037037        0.115917        0        
C1        C        0.307692        0.12963        0.115917        0        
C2        C        0.346154        0.185185        0.115917        0        
C3        C        0.307692        0.203703        0.115917        0        
C4        C        0.346154        0.148148        0.115917        0        
C1        C        0.307692        0.24074099999999998        0.115917        0        
C2        C        0.346154        0.296297        0.115917        0        
C3        C        0.307692        0.314815        0.115917        0        
C4        C        0.346154        0.259259        0.115917        0        
C1        C        0.307692        0.351852        0.115917        0        
C2        C        0.346154        0.407408        0.115917        0        
C3        C        0.307692        0.42592500000000005        0.115917        0        
C4        C        0.346154        0.37037        0.115917        0        
C1        C        0.307692        0.46296300000000007        0.115917        0        
C2        C        0.346154        0.518519        0.115917        0        
C3        C        0.307692        0.537037        0.115917        0        
C4        C        0.346154        0.481481        0.115917        0        
C1        C        0.307692        0.574075        0.115917        0        
C2        C        0.346154        0.62963        0.115917        0        
C3        C        0.307692        0.648148        0.115917        0        
C4        C        0.346154        0.592592        0.115917        0        
C1        C        0.384615        0.018519        0.115917        0        
C2        C        0.423077        0.074075        0.115917        0        
C3        C        0.384615        0.092592        0.115917        0        
C4        C        0.423077        0.037037        0.115917        0        
C1        C        0.384615        0.12963        0.115917        0        
C2        C        0.423077        0.185185        0.115917        0        
C3        C        0.384615        0.203703        0.115917        0        
C4        C        0.423077        0.148148        0.115917        0        
C1        C        0.384615        0.24074099999999998        0.115917        0        
C2        C        0.423077        0.296297        0.115917        0        
C3        C        0.384615        0.314815        0.115917        0        
C4        C        0.423077        0.259259        0.115917        0        
C1        C        0.384615        0.351852        0.115917        0        
C2        C        0.423077        0.407408        0.115917        0        
C3        C        0.384615        0.42592500000000005        0.115917        0        
C4        C        0.423077        0.37037        0.115917        0        
C1        C        0.384615        0.46296300000000007        0.115917        0        
C2        C        0.423077        0.518519        0.115917        0        
C3        C        0.384615        0.537037        0.115917        0        
C4        C        0.423077        0.481481        0.115917        0        
C1        C        0.384615        0.574075        0.115917        0        
C2        C        0.423077        0.62963        0.115917        0        
C3        C        0.384615        0.648148        0.115917        0        
C4        C        0.423077        0.592592        0.115917        0        
C1        C        0.461538        0.018519        0.115917        0        
C2        C        0.5        0.074075        0.115917        0        
C3        C        0.461538        0.092592        0.115917        0        
C4        C        0.5        0.037037        0.115917        0        
C1        C        0.461538        0.12963        0.115917        0        
C2        C        0.5        0.185185        0.115917        0        
C3        C        0.461538        0.203703        0.115917        0        
C4        C        0.5        0.148148        0.115917        0        
C1        C        0.461538        0.24074099999999998        0.115917        0        
C2        C        0.5        0.296297        0.115917        0        
C3        C        0.461538        0.314815        0.115917        0        
C4        C        0.5        0.259259        0.115917        0        
C1        C        0.461538        0.351852        0.115917        0        
C2        C        0.5        0.407408        0.115917        0        
C3        C        0.461538        0.42592500000000005        0.115917        0        
C4        C        0.5        0.37037        0.115917        0        
C1        C        0.461538        0.46296300000000007        0.115917        0        
C2        C        0.5        0.518519        0.115917        0        
C3        C        0.461538        0.537037        0.115917        0        
C4        C        0.5        0.481481        0.115917        0        
C1        C        0.461538        0.574075        0.115917        0        
C2        C        0.5        0.62963        0.115917        0        
C3        C        0.461538        0.648148        0.115917        0        
C4        C        0.5        0.592592        0.115917        0        
C1        C        0.538462        0.018519        0.115917        0        
C2        C        0.576923        0.074075        0.115917        0        
C3        C        0.538462        0.092592        0.115917        0        
C4        C        0.576923        0.037037        0.115917        0        
C1        C        0.538462        0.12963        0.115917        0        
C2        C        0.576923        0.185185        0.115917        0        
C3        C        0.538462        0.203703        0.115917        0        
C4        C        0.576923        0.148148        0.115917        0        
C1        C        0.538462        0.24074099999999998        0.115917        0        
C2        C        0.576923        0.296297        0.115917        0        
C3        C        0.538462        0.314815        0.115917        0        
C4        C        0.576923        0.259259        0.115917        0        
C1        C        0.538462        0.351852        0.115917        0        
C2        C        0.576923        0.407408        0.115917        0        
C3        C        0.538462        0.42592500000000005        0.115917        0        
C4        C        0.576923        0.37037        0.115917        0        
C1        C        0.538462        0.46296300000000007        0.115917        0        
C2        C        0.576923        0.518519        0.115917        0        
C3        C        0.538462        0.537037        0.115917        0        
C4        C        0.576923        0.481481        0.115917        0        
C1        C        0.538462        0.574075        0.115917        0        
C2        C        0.576923        0.62963        0.115917        0        
C3        C        0.538462        0.648148        0.115917        0        
C4        C        0.576923        0.592592        0.115917        0        
C1        C        0.615385        0.018519        0.115917        0        
C2        C        0.653846        0.074075        0.115917        0        
C3        C        0.615385        0.092592        0.115917        0        
C4        C        0.653846        0.037037        0.115917        0        
C1        C        0.615385        0.12963        0.115917        0        
C2        C        0.653846        0.185185        0.115917        0        
C3        C        0.615385        0.203703        0.115917        0        
C4        C        0.653846        0.148148        0.115917        0        
C1        C        0.615385        0.24074099999999998        0.115917        0        
C2        C        0.653846        0.296297        0.115917        0        
C3        C        0.615385        0.314815        0.115917        0        
C4        C        0.653846        0.259259        0.115917        0        
C1        C        0.615385        0.351852        0.115917        0        
C2        C        0.653846        0.407408        0.115917        0        
C3        C        0.615385        0.42592500000000005        0.115917        0        
C4        C        0.653846        0.37037        0.115917        0        
C1        C        0.615385        0.46296300000000007        0.115917        0        
C2        C        0.653846        0.518519        0.115917        0        
C3        C        0.615385        0.537037        0.115917        0        
C4        C        0.653846        0.481481        0.115917        0        
C1        C        0.615385        0.574075        0.115917        0        
C2        C        0.653846        0.62963        0.115917        0        
C3        C        0.615385        0.648148        0.115917        0        
C4        C        0.653846        0.592592        0.115917        0        
C1        C        0.692308        0.018519        0.115917        0        
C2        C        0.730769        0.074075        0.115917        0        
C3        C        0.692308        0.092592        0.115917        0        
C4        C        0.730769        0.037037        0.115917        0        
C1        C        0.692308        0.12963        0.115917        0        
C2        C        0.730769        0.185185        0.115917        0        
C3        C        0.692308        0.203703        0.115917        0        
C4        C        0.730769        0.148148        0.115917        0        
C1        C        0.692308        0.24074099999999998        0.115917        0        
C2        C        0.730769        0.296297        0.115917        0        
C3        C        0.692308        0.314815        0.115917        0        
C4        C        0.730769        0.259259        0.115917        0        
C1        C        0.692308        0.351852        0.115917        0        
C2        C        0.730769        0.407408        0.115917        0        
C3        C        0.692308        0.42592500000000005        0.115917        0        
C4        C        0.730769        0.37037        0.115917        0        
C1        C        0.692308        0.46296300000000007        0.115917        0        
C2        C        0.730769        0.518519        0.115917        0        
C3        C        0.692308        0.537037        0.115917        0        
C4        C        0.730769        0.481481        0.115917        0        
C1        C        0.692308        0.574075        0.115917        0        
C2        C        0.730769        0.62963        0.115917        0        
C3        C        0.692308        0.648148        0.115917        0        
C4        C        0.730769        0.592592        0.115917        0        
C1        C        0.769231        0.018519        0.115917        0        
C2        C        0.807692        0.074075        0.115917        0        
C3        C        0.769231        0.092592        0.115917        0        
C4        C        0.807692        0.037037        0.115917        0        
C1        C        0.769231        0.12963        0.115917        0        
C2        C        0.807692        0.185185        0.115917        0        
C3        C        0.769231        0.203703        0.115917        0        
C4        C        0.807692        0.148148        0.115917        0        
C1        C        0.769231        0.24074099999999998        0.115917        0        
C2        C        0.807692        0.296297        0.115917        0        
C3        C        0.769231        0.314815        0.115917        0        
C4        C        0.807692        0.259259        0.115917        0        
C1        C        0.769231        0.351852        0.115917        0        
C2        C        0.807692        0.407408        0.115917        0        
C3        C        0.769231        0.42592500000000005        0.115917        0        
C4        C        0.807692        0.37037        0.115917        0        
C1        C        0.769231        0.46296300000000007        0.115917        0        
C2        C        0.807692        0.518519        0.115917        0        
C3        C        0.769231        0.537037        0.115917        0        
C4        C        0.807692        0.481481        0.115917        0        
C1        C        0.769231        0.574075        0.115917        0        
C2        C        0.807692        0.62963        0.115917        0        
C3        C        0.769231        0.648148        0.115917        0        
C4        C        0.807692        0.592592        0.115917        0        
C1        C        0.846154        0.018519        0.115917        0        
C2        C        0.884615        0.074075        0.115917        0        
C3        C        0.846154        0.092592        0.115917        0        
C4        C        0.884615        0.037037        0.115917        0        
C1        C        0.846154        0.12963        0.115917        0        
C2        C        0.884615        0.185185        0.115917        0        
C3        C        0.846154        0.203703        0.115917        0        
C4        C        0.884615        0.148148        0.115917        0        
C1        C        0.846154        0.24074099999999998        0.115917        0        
C2        C        0.884615        0.296297        0.115917        0        
C3        C        0.846154        0.314815        0.115917        0        
C4        C        0.884615        0.259259        0.115917        0        
C1        C        0.846154        0.351852        0.115917        0        
C2        C        0.884615        0.407408        0.115917        0        
C3        C        0.846154        0.42592500000000005        0.115917        0        
C4        C        0.884615        0.37037        0.115917        0        
C1        C        0.846154        0.46296300000000007        0.115917        0        
C2        C        0.884615        0.518519        0.115917        0        
C3        C        0.846154        0.537037        0.115917        0        
C4        C        0.884615        0.481481        0.115917        0        
C1        C        0.846154        0.574075        0.115917        0        
C2        C        0.884615        0.62963        0.115917        0        
C3        C        0.846154        0.648148        0.115917        0        
C4        C        0.884615        0.592592        0.115917        0        
C1        C        0.923077        0.018519        0.115917        0        
C2        C        0.961538        0.074075        0.115917        0        
C3        C        0.923077        0.092592        0.115917        0        
C4        C        0.961538        0.037037        0.115917        0        
C1        C        0.923077        0.12963        0.115917        0        
C2        C        0.961538        0.185185        0.115917        0        
C3        C        0.923077        0.203703        0.115917        0        
C4        C        0.961538        0.148148        0.115917        0        
C1        C        0.923077        0.24074099999999998        0.115917        0        
C2        C        0.961538        0.296297        0.115917        0        
C3        C        0.923077        0.314815        0.115917        0        
C4        C        0.961538        0.259259        0.115917        0        
C1        C        0.923077        0.351852        0.115917        0        
C2        C        0.961538        0.407408        0.115917        0        
C3        C        0.923077        0.42592500000000005        0.115917        0        
C4        C        0.961538        0.37037        0.115917        0        
C1        C        0.923077        0.46296300000000007        0.115917        0        
C2        C        0.961538        0.518519        0.115917        0        
C3        C        0.923077        0.537037        0.115917        0        
C4        C        0.961538        0.481481        0.115917        0        
C1        C        0.923077        0.574075        0.115917        0        
C2        C        0.961538        0.62963        0.115917        0        
C3        C        0.923077        0.648148        0.115917        0        
C4        C        0.961538        0.592592        0.115917        0        
C1        C        1.0        0.018519        0.115917        0        
C2        C        1.038462        0.074075        0.115917        0        
C3        C        1.0        0.092592        0.115917        0        
C4        C        1.038462        0.037037        0.115917        0        
C1        C        1.0        0.12963        0.115917        0        
C2        C        1.038462        0.185185        0.115917        0        
C3        C        1.0        0.203703        0.115917        0        
C4        C        1.038462        0.148148        0.115917        0        
C1        C        1.0        0.24074099999999998        0.115917        0        
C2        C        1.038462        0.296297        0.115917        0        
C3        C        1.0        0.314815        0.115917        0        
C4        C        1.038462        0.259259        0.115917        0        
C1        C        1.0        0.351852        0.115917        0        
C2        C        1.038462        0.407408        0.115917        0        
C3        C        1.0        0.42592500000000005        0.115917        0        
C4        C        1.038462        0.37037        0.115917        0        
C1        C        1.0        0.46296300000000007        0.115917        0        
C2        C        1.038462        0.518519        0.115917        0        
C3        C        1.0        0.537037        0.115917        0        
C4        C        1.038462        0.481481        0.115917        0        
C1        C        1.0        0.574075        0.115917        0        
C2        C        1.038462        0.62963        0.115917        0        
C3        C        1.0        0.648148        0.115917        0        
C4        C        1.038462        0.592592        0.115917        0        
C1        C        0.0        0.685186        0.115917        0        
C1        C        0.076923        0.685186        0.115917        0        
C1        C        0.153846        0.685186        0.115917        0        
C1        C        0.230769        0.685186        0.115917        0        
C1        C        0.307692        0.685186        0.115917        0        
C1        C        0.384615        0.685186        0.115917        0        
C1        C        0.461538        0.685186        0.115917        0        
C1        C        0.538462        0.685186        0.115917        0        
C1        C        0.615385        0.685186        0.115917        0        
C1        C        0.692308        0.685186        0.115917        0        
C1        C        0.769231        0.685186        0.115917        0        
C1        C        0.846154        0.685186        0.115917        0        
C1        C        0.923077        0.685186        0.115917        0        
C1        C        1.0        0.685186        0.115917        0        
C2        C        0.038462        0.740741        0.115917        0        
C2        C        0.115385        0.740741        0.115917        0        
C2        C        0.192308        0.740741        0.115917        0        
C2        C        0.269231        0.740741        0.115917        0        
C2        C        0.346154        0.740741        0.115917        0        
C2        C        0.423077        0.740741        0.115917        0        
C2        C        0.5        0.740741        0.115917        0        
C2        C        0.576923        0.740741        0.115917        0        
C2        C        0.653846        0.740741        0.115917        0        
C2        C        0.730769        0.740741        0.115917        0        
C2        C        0.807692        0.740741        0.115917        0        
C2        C        0.884615        0.740741        0.115917        0        
C2        C        0.961538        0.740741        0.115917        0        
C2        C        1.038462        0.740741        0.115917        0        
C3        C        0.0        0.759259        0.115917        0        
C3        C        0.076923        0.759259        0.115917        0        
C3        C        0.153846        0.759259        0.115917        0        
C3        C        0.230769        0.759259        0.115917        0        
C3        C        0.307692        0.759259        0.115917        0        
C3        C        0.384615        0.759259        0.115917        0        
C3        C        0.461538        0.759259        0.115917        0        
C3        C        0.538462        0.759259        0.115917        0        
C3        C        0.615385        0.759259        0.115917        0        
C3        C        0.692308        0.759259        0.115917        0        
C3        C        0.769231        0.759259        0.115917        0        
C3        C        0.846154        0.759259        0.115917        0        
C3        C        0.923077        0.759259        0.115917        0        
C3        C        1.0        0.759259        0.115917        0        
C4        C        0.038462        0.703703        0.115917        0        
C4        C        0.115385        0.703703        0.115917        0        
C4        C        0.192308        0.703703        0.115917        0        
C4        C        0.269231        0.703703        0.115917        0        
C4        C        0.346154        0.703703        0.115917        0        
C4        C        0.423077        0.703703        0.115917        0        
C4        C        0.5        0.703703        0.115917        0        
C4        C        0.576923        0.703703        0.115917        0        
C4        C        0.653846        0.703703        0.115917        0        
C4        C        0.730769        0.703703        0.115917        0        
C4        C        0.807692        0.703703        0.115917        0        
C4        C        0.884615        0.703703        0.115917        0        
C4        C        0.961538        0.703703        0.115917        0        
C4        C        1.038462        0.703703        0.115917        0        
C1        C        0.0        0.796297        0.115917        0        
C1        C        0.076923        0.796297        0.115917        0        
C1        C        0.153846        0.796297        0.115917        0        
C1        C        0.230769        0.796297        0.115917        0        
C1        C        0.307692        0.796297        0.115917        0        
C1        C        0.384615        0.796297        0.115917        0        
C1        C        0.461538        0.796297        0.115917        0        
C1        C        0.538462        0.796297        0.115917        0        
C1        C        0.615385        0.796297        0.115917        0        
C1        C        0.692308        0.796297        0.115917        0        
C1        C        0.769231        0.796297        0.115917        0        
C1        C        0.846154        0.796297        0.115917        0        
C1        C        0.923077        0.796297        0.115917        0        
C1        C        1.0        0.796297        0.115917        0        
C2        C        0.038462        0.851852        0.115917        0        
C2        C        0.115385        0.851852        0.115917        0        
C2        C        0.192308        0.851852        0.115917        0        
C2        C        0.269231        0.851852        0.115917        0        
C2        C        0.346154        0.851852        0.115917        0        
C2        C        0.423077        0.851852        0.115917        0        
C2        C        0.5        0.851852        0.115917        0        
C2        C        0.576923        0.851852        0.115917        0        
C2        C        0.653846        0.851852        0.115917        0        
C2        C        0.730769        0.851852        0.115917        0        
C2        C        0.807692        0.851852        0.115917        0        
C2        C        0.884615        0.851852        0.115917        0        
C2        C        0.961538        0.851852        0.115917        0        
C2        C        1.038462        0.851852        0.115917        0        
C3        C        0.0        0.87037        0.115917        0        
C3        C        0.076923        0.87037        0.115917        0        
C3        C        0.153846        0.87037        0.115917        0        
C3        C        0.230769        0.87037        0.115917        0        
C3        C        0.307692        0.87037        0.115917        0        
C3        C        0.384615        0.87037        0.115917        0        
C3        C        0.461538        0.87037        0.115917        0        
C3        C        0.538462        0.87037        0.115917        0        
C3        C        0.615385        0.87037        0.115917        0        
C3        C        0.692308        0.87037        0.115917        0        
C3        C        0.769231        0.87037        0.115917        0        
C3        C        0.846154        0.87037        0.115917        0        
C3        C        0.923077        0.87037        0.115917        0        
C3        C        1.0        0.87037        0.115917        0        
C4        C        0.038462        0.814814        0.115917        0        
C4        C        0.115385        0.814814        0.115917        0        
C4        C        0.192308        0.814814        0.115917        0        
C4        C        0.269231        0.814814        0.115917        0        
C4        C        0.346154        0.814814        0.115917        0        
C4        C        0.423077        0.814814        0.115917        0        
C4        C        0.5        0.814814        0.115917        0        
C4        C        0.576923        0.814814        0.115917        0        
C4        C        0.653846        0.814814        0.115917        0        
C4        C        0.730769        0.814814        0.115917        0        
C4        C        0.807692        0.814814        0.115917        0        
C4        C        0.884615        0.814814        0.115917        0        
C4        C        0.961538        0.814814        0.115917        0        
C4        C        1.038462        0.814814        0.115917        0        
C1        C        0.0        0.907408        0.115917        0        
C1        C        0.076923        0.907408        0.115917        0        
C1        C        0.153846        0.907408        0.115917        0        
C1        C        0.230769        0.907408        0.115917        0        
C1        C        0.307692        0.907408        0.115917        0        
C1        C        0.384615        0.907408        0.115917        0        
C1        C        0.461538        0.907408        0.115917        0        
C1        C        0.538462        0.907408        0.115917        0        
C1        C        0.615385        0.907408        0.115917        0        
C1        C        0.692308        0.907408        0.115917        0        
C1        C        0.769231        0.907408        0.115917        0        
C1        C        0.846154        0.907408        0.115917        0        
C1        C        0.923077        0.907408        0.115917        0        
C1        C        1.0        0.907408        0.115917        0        
C2        C        0.038462        0.962963        0.115917        0        
C2        C        0.115385        0.962963        0.115917        0        
C2        C        0.192308        0.962963        0.115917        0        
C2        C        0.269231        0.962963        0.115917        0        
C2        C        0.346154        0.962963        0.115917        0        
C2        C        0.423077        0.962963        0.115917        0        
C2        C        0.5        0.962963        0.115917        0        
C2        C        0.576923        0.962963        0.115917        0        
C2        C        0.653846        0.962963        0.115917        0        
C2        C        0.730769        0.962963        0.115917        0        
C2        C        0.807692        0.962963        0.115917        0        
C2        C        0.884615        0.962963        0.115917        0        
C2        C        0.961538        0.962963        0.115917        0        
C2        C        1.038462        0.962963        0.115917        0        
C3        C        0.0        0.9814809999999999        0.115917        0        
C3        C        0.076923        0.9814809999999999        0.115917        0        
C3        C        0.153846        0.9814809999999999        0.115917        0        
C3        C        0.230769        0.9814809999999999        0.115917        0        
C3        C        0.307692        0.9814809999999999        0.115917        0        
C3        C        0.384615        0.9814809999999999        0.115917        0        
C3        C        0.461538        0.9814809999999999        0.115917        0        
C3        C        0.538462        0.9814809999999999        0.115917        0        
C3        C        0.615385        0.9814809999999999        0.115917        0        
C3        C        0.692308        0.9814809999999999        0.115917        0        
C3        C        0.769231        0.9814809999999999        0.115917        0        
C3        C        0.846154        0.9814809999999999        0.115917        0        
C3        C        0.923077        0.9814809999999999        0.115917        0        
C3        C        1.0        0.9814809999999999        0.115917        0        
C4        C        0.038462        0.925925        0.115917        0        
C4        C        0.115385        0.925925        0.115917        0        
C4        C        0.192308        0.925925        0.115917        0        
C4        C        0.269231        0.925925        0.115917        0        
C4        C        0.346154        0.925925        0.115917        0        
C4        C        0.423077        0.925925        0.115917        0        
C4        C        0.5        0.925925        0.115917        0        
C4        C        0.576923        0.925925        0.115917        0        
C4        C        0.653846        0.925925        0.115917        0        
C4        C        0.730769        0.925925        0.115917        0        
C4        C        0.807692        0.925925        0.115917        0        
C4        C        0.884615        0.925925        0.115917        0        
C4        C        0.961538        0.925925        0.115917        0        
C4        C        1.038462        0.925925        0.115917        0        
C1        C        0.0        0.018519        0.231834        0        
C2        C        0.038462        0.074075        0.231834        0        
C3        C        0.0        0.092592        0.231834        0        
C4        C        0.038462        0.037037        0.231834        0        
C1        C        0.0        0.12963        0.231834        0        
C2        C        0.038462        0.185185        0.231834        0        
C3        C        0.0        0.203703        0.231834        0        
C4        C        0.038462        0.148148        0.231834        0        
C1        C        0.0        0.24074099999999998        0.231834        0        
C2        C        0.038462        0.296297        0.231834        0        
C3        C        0.0        0.314815        0.231834        0        
C4        C        0.038462        0.259259        0.231834        0        
C1        C        0.0        0.351852        0.231834        0        
C2        C        0.038462        0.407408        0.231834        0        
C3        C        0.0        0.42592500000000005        0.231834        0        
C4        C        0.038462        0.37037        0.231834        0        
C1        C        0.0        0.46296300000000007        0.231834        0        
C2        C        0.038462        0.518519        0.231834        0        
C3        C        0.0        0.537037        0.231834        0        
C4        C        0.038462        0.481481        0.231834        0        
C1        C        0.0        0.574075        0.231834        0        
C2        C        0.038462        0.62963        0.231834        0        
C3        C        0.0        0.648148        0.231834        0        
C4        C        0.038462        0.592592        0.231834        0        
C_FG        C        0.076923        0.018519        0.231834        0.2        
C2        C        0.115385        0.074075        0.231834        0        
C3        C        0.076923        0.092592        0.231834        0        
C4        C        0.115385        0.037037        0.231834        0        
C_FG        C        0.076923        0.12963        0.231834        0.2        
C2        C        0.115385        0.185185        0.231834        0        
C3        C        0.076923        0.203703        0.231834        0        
C4        C        0.115385        0.148148        0.231834        0        
C_FG        C        0.076923        0.24074099999999998        0.231834        0.2        
C2        C        0.115385        0.296297        0.231834        0        
C3        C        0.076923        0.314815        0.231834        0        
C4        C        0.115385        0.259259        0.231834        0        
C_FG        C        0.076923        0.351852        0.231834        0.2        
C2        C        0.115385        0.407408        0.231834        0        
C3        C        0.076923        0.42592500000000005        0.231834        0        
C4        C        0.115385        0.37037        0.231834        0        
C_FG        C        0.076923        0.46296300000000007        0.231834        0.2        
C2        C        0.115385        0.518519        0.231834        0        
C3        C        0.076923        0.537037        0.231834        0        
C4        C        0.115385        0.481481        0.231834        0        
C_FG        C        0.076923        0.574075        0.231834        0.2        
C2        C        0.115385        0.62963        0.231834        0        
C3        C        0.076923        0.648148        0.231834        0        
C4        C        0.115385        0.592592        0.231834        0        
C1        C        0.153846        0.018519        0.231834        0        
C2        C        0.192308        0.074075        0.231834        0        
C3        C        0.153846        0.092592        0.231834        0        
C4        C        0.192308        0.037037        0.231834        0        
C1        C        0.153846        0.12963        0.231834        0        
C2        C        0.192308        0.185185        0.231834        0        
C3        C        0.153846        0.203703        0.231834        0        
C4        C        0.192308        0.148148        0.231834        0        
C1        C        0.153846        0.24074099999999998        0.231834        0        
C2        C        0.192308        0.296297        0.231834        0        
C3        C        0.153846        0.314815        0.231834        0        
C4        C        0.192308        0.259259        0.231834        0        
C1        C        0.153846        0.351852        0.231834        0        
C2        C        0.192308        0.407408        0.231834        0        
C3        C        0.153846        0.42592500000000005        0.231834        0        
C4        C        0.192308        0.37037        0.231834        0        
C1        C        0.153846        0.46296300000000007        0.231834        0        
C2        C        0.192308        0.518519        0.231834        0        
C3        C        0.153846        0.537037        0.231834        0        
C4        C        0.192308        0.481481        0.231834        0        
C1        C        0.153846        0.574075        0.231834        0        
C2        C        0.192308        0.62963        0.231834        0        
C3        C        0.153846        0.648148        0.231834        0        
C4        C        0.192308        0.592592        0.231834        0        
C_FG        C        0.230769        0.018519        0.231834        0.2        
C2        C        0.269231        0.074075        0.231834        0        
C3        C        0.230769        0.092592        0.231834        0        
C4        C        0.269231        0.037037        0.231834        0        
C_FG        C        0.230769        0.12963        0.231834        0.2        
C2        C        0.269231        0.185185        0.231834        0        
C3        C        0.230769        0.203703        0.231834        0        
C4        C        0.269231        0.148148        0.231834        0        
C_FG        C        0.230769        0.24074099999999998        0.231834        0.2        
C2        C        0.269231        0.296297        0.231834        0        
C3        C        0.230769        0.314815        0.231834        0        
C4        C        0.269231        0.259259        0.231834        0        
C_FG        C        0.230769        0.351852        0.231834        0.2        
C2        C        0.269231        0.407408        0.231834        0        
C3        C        0.230769        0.42592500000000005        0.231834        0        
C4        C        0.269231        0.37037        0.231834        0        
C_FG        C        0.230769        0.46296300000000007        0.231834        0.2        
C2        C        0.269231        0.518519        0.231834        0        
C3        C        0.230769        0.537037        0.231834        0        
C4        C        0.269231        0.481481        0.231834        0        
C_FG        C        0.230769        0.574075        0.231834        0.2        
C2        C        0.269231        0.62963        0.231834        0        
C3        C        0.230769        0.648148        0.231834        0        
C4        C        0.269231        0.592592        0.231834        0        
C1        C        0.307692        0.018519        0.231834        0        
C2        C        0.346154        0.074075        0.231834        0        
C3        C        0.307692        0.092592        0.231834        0        
C4        C        0.346154        0.037037        0.231834        0        
C1        C        0.307692        0.12963        0.231834        0        
C2        C        0.346154        0.185185        0.231834        0        
C3        C        0.307692        0.203703        0.231834        0        
C4        C        0.346154        0.148148        0.231834        0        
C1        C        0.307692        0.24074099999999998        0.231834        0        
C2        C        0.346154        0.296297        0.231834        0        
C3        C        0.307692        0.314815        0.231834        0        
C4        C        0.346154        0.259259        0.231834        0        
C1        C        0.307692        0.351852        0.231834        0        
C2        C        0.346154        0.407408        0.231834        0        
C3        C        0.307692        0.42592500000000005        0.231834        0        
C4        C        0.346154        0.37037        0.231834        0        
C1        C        0.307692        0.46296300000000007        0.231834        0        
C2        C        0.346154        0.518519        0.231834        0        
C3        C        0.307692        0.537037        0.231834        0        
C4        C        0.346154        0.481481        0.231834        0        
C1        C        0.307692        0.574075        0.231834        0        
C2        C        0.346154        0.62963        0.231834        0        
C3        C        0.307692        0.648148        0.231834        0        
C4        C        0.346154        0.592592        0.231834        0        
C1        C        0.384615        0.018519        0.231834        0        
C2        C        0.423077        0.074075        0.231834        0        
C3        C        0.384615        0.092592        0.231834        0        
C4        C        0.423077        0.037037        0.231834        0        
C1        C        0.384615        0.12963        0.231834        0        
C2        C        0.423077        0.185185        0.231834        0        
C3        C        0.384615        0.203703        0.231834        0        
C4        C        0.423077        0.148148        0.231834        0        
C1        C        0.384615        0.24074099999999998        0.231834        0        
C2        C        0.423077        0.296297        0.231834        0        
C3        C        0.384615        0.314815        0.231834        0        
C4        C        0.423077        0.259259        0.231834        0        
C1        C        0.384615        0.351852        0.231834        0        
C2        C        0.423077        0.407408        0.231834        0        
C3        C        0.384615        0.42592500000000005        0.231834        0        
C4        C        0.423077        0.37037        0.231834        0        
C1        C        0.384615        0.46296300000000007        0.231834        0        
C2        C        0.423077        0.518519        0.231834        0        
C3        C        0.384615        0.537037        0.231834        0        
C4        C        0.423077        0.481481        0.231834        0        
C1        C        0.384615        0.574075        0.231834        0        
C2        C        0.423077        0.62963        0.231834        0        
C3        C        0.384615        0.648148        0.231834        0        
C4        C        0.423077        0.592592        0.231834        0        
C1        C        0.461538        0.018519        0.231834        0        
C2        C        0.5        0.074075        0.231834        0        
C3        C        0.461538        0.092592        0.231834        0        
C4        C        0.5        0.037037        0.231834        0        
C1        C        0.461538        0.12963        0.231834        0        
C2        C        0.5        0.185185        0.231834        0        
C3        C        0.461538        0.203703        0.231834        0        
C4        C        0.5        0.148148        0.231834        0        
C1        C        0.461538        0.24074099999999998        0.231834        0        
C2        C        0.5        0.296297        0.231834        0        
C3        C        0.461538        0.314815        0.231834        0        
C4        C        0.5        0.259259        0.231834        0        
C1        C        0.461538        0.351852        0.231834        0        
C2        C        0.5        0.407408        0.231834        0        
C3        C        0.461538        0.42592500000000005        0.231834        0        
C4        C        0.5        0.37037        0.231834        0        
C1        C        0.461538        0.46296300000000007        0.231834        0        
C2        C        0.5        0.518519        0.231834        0        
C3        C        0.461538        0.537037        0.231834        0        
C4        C        0.5        0.481481        0.231834        0        
C1        C        0.461538        0.574075        0.231834        0        
C2        C        0.5        0.62963        0.231834        0        
C3        C        0.461538        0.648148        0.231834        0        
C4        C        0.5        0.592592        0.231834        0        
C1        C        0.538462        0.018519        0.231834        0        
C2        C        0.576923        0.074075        0.231834        0        
C3        C        0.538462        0.092592        0.231834        0        
C4        C        0.576923        0.037037        0.231834        0        
C1        C        0.538462        0.12963        0.231834        0        
C2        C        0.576923        0.185185        0.231834        0        
C3        C        0.538462        0.203703        0.231834        0        
C4        C        0.576923        0.148148        0.231834        0        
C1        C        0.538462        0.24074099999999998        0.231834        0        
C2        C        0.576923        0.296297        0.231834        0        
C3        C        0.538462        0.314815        0.231834        0        
C4        C        0.576923        0.259259        0.231834        0        
C1        C        0.538462        0.351852        0.231834        0        
C2        C        0.576923        0.407408        0.231834        0        
C3        C        0.538462        0.42592500000000005        0.231834        0        
C4        C        0.576923        0.37037        0.231834        0        
C1        C        0.538462        0.46296300000000007        0.231834        0        
C2        C        0.576923        0.518519        0.231834        0        
C3        C        0.538462        0.537037        0.231834        0        
C4        C        0.576923        0.481481        0.231834        0        
C1        C        0.538462        0.574075        0.231834        0        
C2        C        0.576923        0.62963        0.231834        0        
C3        C        0.538462        0.648148        0.231834        0        
C4        C        0.576923        0.592592        0.231834        0        
C1        C        0.615385        0.018519        0.231834        0        
C2        C        0.653846        0.074075        0.231834        0        
C3        C        0.615385        0.092592        0.231834        0        
C4        C        0.653846        0.037037        0.231834        0        
C1        C        0.615385        0.12963        0.231834        0        
C2        C        0.653846        0.185185        0.231834        0        
C3        C        0.615385        0.203703        0.231834        0        
C4        C        0.653846        0.148148        0.231834        0        
C1        C        0.615385        0.24074099999999998        0.231834        0        
C2        C        0.653846        0.296297        0.231834        0        
C3        C        0.615385        0.314815        0.231834        0        
C4        C        0.653846        0.259259        0.231834        0        
C1        C        0.615385        0.351852        0.231834        0        
C2        C        0.653846        0.407408        0.231834        0        
C3        C        0.615385        0.42592500000000005        0.231834        0        
C4        C        0.653846        0.37037        0.231834        0        
C1        C        0.615385        0.46296300000000007        0.231834        0        
C2        C        0.653846        0.518519        0.231834        0        
C3        C        0.615385        0.537037        0.231834        0        
C4        C        0.653846        0.481481        0.231834        0        
C1        C        0.615385        0.574075        0.231834        0        
C2        C        0.653846        0.62963        0.231834        0        
C3        C        0.615385        0.648148        0.231834        0        
C4        C        0.653846        0.592592        0.231834        0        
C1        C        0.692308        0.018519        0.231834        0        
C2        C        0.730769        0.074075        0.231834        0        
C3        C        0.692308        0.092592        0.231834        0        
C4        C        0.730769        0.037037        0.231834        0        
C1        C        0.692308        0.12963        0.231834        0        
C2        C        0.730769        0.185185        0.231834        0        
C3        C        0.692308        0.203703        0.231834        0        
C4        C        0.730769        0.148148        0.231834        0        
C1        C        0.692308        0.24074099999999998        0.231834        0        
C2        C        0.730769        0.296297        0.231834        0        
C3        C        0.692308        0.314815        0.231834        0        
C4        C        0.730769        0.259259        0.231834        0        
C1        C        0.692308        0.351852        0.231834        0        
C2        C        0.730769        0.407408        0.231834        0        
C3        C        0.692308        0.42592500000000005        0.231834        0        
C4        C        0.730769        0.37037        0.231834        0        
C1        C        0.692308        0.46296300000000007        0.231834        0        
C2        C        0.730769        0.518519        0.231834        0        
C3        C        0.692308        0.537037        0.231834        0        
C4        C        0.730769        0.481481        0.231834        0        
C1        C        0.692308        0.574075        0.231834        0        
C2        C        0.730769        0.62963        0.231834        0        
C3        C        0.692308        0.648148        0.231834        0        
C4        C        0.730769        0.592592        0.231834        0        
C1        C        0.769231        0.018519        0.231834        0        
C2        C        0.807692        0.074075        0.231834        0        
C3        C        0.769231        0.092592        0.231834        0        
C4        C        0.807692        0.037037        0.231834        0        
C1        C        0.769231        0.12963        0.231834        0        
C2        C        0.807692        0.185185        0.231834        0        
C3        C        0.769231        0.203703        0.231834        0        
C4        C        0.807692        0.148148        0.231834        0        
C1        C        0.769231        0.24074099999999998        0.231834        0        
C2        C        0.807692        0.296297        0.231834        0        
C3        C        0.769231        0.314815        0.231834        0        
C4        C        0.807692        0.259259        0.231834        0        
C1        C        0.769231        0.351852        0.231834        0        
C2        C        0.807692        0.407408        0.231834        0        
C3        C        0.769231        0.42592500000000005        0.231834        0        
C4        C        0.807692        0.37037        0.231834        0        
C1        C        0.769231        0.46296300000000007        0.231834        0        
C2        C        0.807692        0.518519        0.231834        0        
C3        C        0.769231        0.537037        0.231834        0        
C4        C        0.807692        0.481481        0.231834        0        
C1        C        0.769231        0.574075        0.231834        0        
C2        C        0.807692        0.62963        0.231834        0        
C3        C        0.769231        0.648148        0.231834        0        
C4        C        0.807692        0.592592        0.231834        0        
C_FG        C        0.846154        0.018519        0.231834        0.2        
C2        C        0.884615        0.074075        0.231834        0        
C3        C        0.846154        0.092592        0.231834        0        
C4        C        0.884615        0.037037        0.231834        0        
C_FG        C        0.846154        0.12963        0.231834        0.2        
C2        C        0.884615        0.185185        0.231834        0        
C3        C        0.846154        0.203703        0.231834        0        
C4        C        0.884615        0.148148        0.231834        0        
C_FG        C        0.846154        0.24074099999999998        0.231834        0.2        
C2        C        0.884615        0.296297        0.231834        0        
C3        C        0.846154        0.314815        0.231834        0        
C4        C        0.884615        0.259259        0.231834        0        
C_FG        C        0.846154        0.351852        0.231834        0.2        
C2        C        0.884615        0.407408        0.231834        0        
C3        C        0.846154        0.42592500000000005        0.231834        0        
C4        C        0.884615        0.37037        0.231834        0        
C_FG        C        0.846154        0.46296300000000007        0.231834        0.2        
C2        C        0.884615        0.518519        0.231834        0        
C3        C        0.846154        0.537037        0.231834        0        
C4        C        0.884615        0.481481        0.231834        0        
C_FG        C        0.846154        0.574075        0.231834        0.2        
C2        C        0.884615        0.62963        0.231834        0        
C3        C        0.846154        0.648148        0.231834        0        
C4        C        0.884615        0.592592        0.231834        0        
C1        C        0.923077        0.018519        0.231834        0        
C2        C        0.961538        0.074075        0.231834        0        
C3        C        0.923077        0.092592        0.231834        0        
C4        C        0.961538        0.037037        0.231834        0        
C1        C        0.923077        0.12963        0.231834        0        
C2        C        0.961538        0.185185        0.231834        0        
C3        C        0.923077        0.203703        0.231834        0        
C4        C        0.961538        0.148148        0.231834        0        
C1        C        0.923077        0.24074099999999998        0.231834        0        
C2        C        0.961538        0.296297        0.231834        0        
C3        C        0.923077        0.314815        0.231834        0        
C4        C        0.961538        0.259259        0.231834        0        
C1        C        0.923077        0.351852        0.231834        0        
C2        C        0.961538        0.407408        0.231834        0        
C3        C        0.923077        0.42592500000000005        0.231834        0        
C4        C        0.961538        0.37037        0.231834        0        
C1        C        0.923077        0.46296300000000007        0.231834        0        
C2        C        0.961538        0.518519        0.231834        0        
C3        C        0.923077        0.537037        0.231834        0        
C4        C        0.961538        0.481481        0.231834        0        
C1        C        0.923077        0.574075        0.231834        0        
C2        C        0.961538        0.62963        0.231834        0        
C3        C        0.923077        0.648148        0.231834        0        
C4        C        0.961538        0.592592        0.231834        0        
C_FG        C        1.0        0.018519        0.231834        0.2        
C2        C        1.038462        0.074075        0.231834        0        
C3        C        1.0        0.092592        0.231834        0        
C4        C        1.038462        0.037037        0.231834        0        
C_FG        C        1.0        0.12963        0.231834        0.2        
C2        C        1.038462        0.185185        0.231834        0        
C3        C        1.0        0.203703        0.231834        0        
C4        C        1.038462        0.148148        0.231834        0        
C_FG        C        1.0        0.24074099999999998        0.231834        0.2        
C2        C        1.038462        0.296297        0.231834        0        
C3        C        1.0        0.314815        0.231834        0        
C4        C        1.038462        0.259259        0.231834        0        
C_FG        C        1.0        0.351852        0.231834        0.2        
C2        C        1.038462        0.407408        0.231834        0        
C3        C        1.0        0.42592500000000005        0.231834        0        
C4        C        1.038462        0.37037        0.231834        0        
C_FG        C        1.0        0.46296300000000007        0.231834        0.2        
C2        C        1.038462        0.518519        0.231834        0        
C3        C        1.0        0.537037        0.231834        0        
C4        C        1.038462        0.481481        0.231834        0        
C_FG        C        1.0        0.574075        0.231834        0.2        
C2        C        1.038462        0.62963        0.231834        0        
C3        C        1.0        0.648148        0.231834        0        
C4        C        1.038462        0.592592        0.231834        0        
C1        C        0.0        0.685186        0.231834        0        
C_FG        C        0.076923        0.685186        0.231834        0.2        
C1        C        0.153846        0.685186        0.231834        0        
C_FG        C        0.230769        0.685186        0.231834        0.2        
C1        C        0.307692        0.685186        0.231834        0        
C1        C        0.384615        0.685186        0.231834        0        
C1        C        0.461538        0.685186        0.231834        0        
C1        C        0.538462        0.685186        0.231834        0        
C1        C        0.615385        0.685186        0.231834        0        
C1        C        0.692308        0.685186        0.231834        0        
C1        C        0.769231        0.685186        0.231834        0        
C_FG        C        0.846154        0.685186        0.231834        0.2        
C1        C        0.923077        0.685186        0.231834        0        
C_FG        C        1.0        0.685186        0.231834        0.2        
C2        C        0.038462        0.740741        0.231834        0        
C2        C        0.115385        0.740741        0.231834        0        
C2        C        0.192308        0.740741        0.231834        0        
C2        C        0.269231        0.740741        0.231834        0        
C2        C        0.346154        0.740741        0.231834        0        
C2        C        0.423077        0.740741        0.231834        0        
C2        C        0.5        0.740741        0.231834        0        
C2        C        0.576923        0.740741        0.231834        0        
C2        C        0.653846        0.740741        0.231834        0        
C2        C        0.730769        0.740741        0.231834        0        
C2        C        0.807692        0.740741        0.231834        0        
C2        C        0.884615        0.740741        0.231834        0        
C2        C        0.961538        0.740741        0.231834        0        
C2        C        1.038462        0.740741        0.231834        0        
C3        C        0.0        0.759259        0.231834        0        
C3        C        0.076923        0.759259        0.231834        0        
C3        C        0.153846        0.759259        0.231834        0        
C3        C        0.230769        0.759259        0.231834        0        
C3        C        0.307692        0.759259        0.231834        0        
C3        C        0.384615        0.759259        0.231834        0        
C3        C        0.461538        0.759259        0.231834        0        
C3        C        0.538462        0.759259        0.231834        0        
C3        C        0.615385        0.759259        0.231834        0        
C3        C        0.692308        0.759259        0.231834        0        
C3        C        0.769231        0.759259        0.231834        0        
C3        C        0.846154        0.759259        0.231834        0        
C3        C        0.923077        0.759259        0.231834        0        
C3        C        1.0        0.759259        0.231834        0        
C4        C        0.038462        0.703703        0.231834        0        
C4        C        0.115385        0.703703        0.231834        0        
C4        C        0.192308        0.703703        0.231834        0        
C4        C        0.269231        0.703703        0.231834        0        
C4        C        0.346154        0.703703        0.231834        0        
C4        C        0.423077        0.703703        0.231834        0        
C4        C        0.5        0.703703        0.231834        0        
C4        C        0.576923        0.703703        0.231834        0        
C4        C        0.653846        0.703703        0.231834        0        
C4        C        0.730769        0.703703        0.231834        0        
C4        C        0.807692        0.703703        0.231834        0        
C4        C        0.884615        0.703703        0.231834        0        
C4        C        0.961538        0.703703        0.231834        0        
C4        C        1.038462        0.703703        0.231834        0        
C1        C        0.0        0.796297        0.231834        0        
C_FG        C        0.076923        0.796297        0.231834        0.2        
C1        C        0.153846        0.796297        0.231834        0        
C_FG        C        0.230769        0.796297        0.231834        0.2        
C1        C        0.307692        0.796297        0.231834        0        
C1        C        0.384615        0.796297        0.231834        0        
C1        C        0.461538        0.796297        0.231834        0        
C1        C        0.538462        0.796297        0.231834        0        
C1        C        0.615385        0.796297        0.231834        0        
C1        C        0.692308        0.796297        0.231834        0        
C1        C        0.769231        0.796297        0.231834        0        
C_FG        C        0.846154        0.796297        0.231834        0.2        
C1        C        0.923077        0.796297        0.231834        0        
C_FG        C        1.0        0.796297        0.231834        0.2        
C2        C        0.038462        0.851852        0.231834        0        
C2        C        0.115385        0.851852        0.231834        0        
C2        C        0.192308        0.851852        0.231834        0        
C2        C        0.269231        0.851852        0.231834        0        
C2        C        0.346154        0.851852        0.231834        0        
C2        C        0.423077        0.851852        0.231834        0        
C2        C        0.5        0.851852        0.231834        0        
C2        C        0.576923        0.851852        0.231834        0        
C2        C        0.653846        0.851852        0.231834        0        
C2        C        0.730769        0.851852        0.231834        0        
C2        C        0.807692        0.851852        0.231834        0        
C2        C        0.884615        0.851852        0.231834        0        
C2        C        0.961538        0.851852        0.231834        0        
C2        C        1.038462        0.851852        0.231834        0        
C3        C        0.0        0.87037        0.231834        0        
C3        C        0.076923        0.87037        0.231834        0        
C3        C        0.153846        0.87037        0.231834        0        
C3        C        0.230769        0.87037        0.231834        0        
C3        C        0.307692        0.87037        0.231834        0        
C3        C        0.384615        0.87037        0.231834        0        
C3        C        0.461538        0.87037        0.231834        0        
C3        C        0.538462        0.87037        0.231834        0        
C3        C        0.615385        0.87037        0.231834        0        
C3        C        0.692308        0.87037        0.231834        0        
C3        C        0.769231        0.87037        0.231834        0        
C3        C        0.846154        0.87037        0.231834        0        
C3        C        0.923077        0.87037        0.231834        0        
C3        C        1.0        0.87037        0.231834        0        
C4        C        0.038462        0.814814        0.231834        0        
C4        C        0.115385        0.814814        0.231834        0        
C4        C        0.192308        0.814814        0.231834        0        
C4        C        0.269231        0.814814        0.231834        0        
C4        C        0.346154        0.814814        0.231834        0        
C4        C        0.423077        0.814814        0.231834        0        
C4        C        0.5        0.814814        0.231834        0        
C4        C        0.576923        0.814814        0.231834        0        
C4        C        0.653846        0.814814        0.231834        0        
C4        C        0.730769        0.814814        0.231834        0        
C4        C        0.807692        0.814814        0.231834        0        
C4        C        0.884615        0.814814        0.231834        0        
C4        C        0.961538        0.814814        0.231834        0        
C4        C        1.038462        0.814814        0.231834        0        
C1        C        0.0        0.907408        0.231834        0        
C_FG        C        0.076923        0.907408        0.231834        0.2        
C1        C        0.153846        0.907408        0.231834        0        
C_FG        C        0.230769        0.907408        0.231834        0.2        
C1        C        0.307692        0.907408        0.231834        0        
C1        C        0.384615        0.907408        0.231834        0        
C1        C        0.461538        0.907408        0.231834        0        
C1        C        0.538462        0.907408        0.231834        0        
C1        C        0.615385        0.907408        0.231834        0        
C1        C        0.692308        0.907408        0.231834        0        
C1        C        0.769231        0.907408        0.231834        0        
C_FG        C        0.846154        0.907408        0.231834        0.2        
C1        C        0.923077        0.907408        0.231834        0        
C_FG        C        1.0        0.907408        0.231834        0.2        
C2        C        0.038462        0.962963        0.231834        0        
C2        C        0.115385        0.962963        0.231834        0        
C2        C        0.192308        0.962963        0.231834        0        
C2        C        0.269231        0.962963        0.231834        0        
C2        C        0.346154        0.962963        0.231834        0        
C2        C        0.423077        0.962963        0.231834        0        
C2        C        0.5        0.962963        0.231834        0        
C2        C        0.576923        0.962963        0.231834        0        
C2        C        0.653846        0.962963        0.231834        0        
C2        C        0.730769        0.962963        0.231834        0        
C2        C        0.807692        0.962963        0.231834        0        
C2        C        0.884615        0.962963        0.231834        0        
C2        C        0.961538        0.962963        0.231834        0        
C2        C        1.038462        0.962963        0.231834        0        
C3        C        0.0        0.9814809999999999        0.231834        0        
C3        C        0.076923        0.9814809999999999        0.231834        0        
C3        C        0.153846        0.9814809999999999        0.231834        0        
C3        C        0.230769        0.9814809999999999        0.231834        0        
C3        C        0.307692        0.9814809999999999        0.231834        0        
C3        C        0.384615        0.9814809999999999        0.231834        0        
C3        C        0.461538        0.9814809999999999        0.231834        0        
C3        C        0.538462        0.9814809999999999        0.231834        0        
C3        C        0.615385        0.9814809999999999        0.231834        0        
C3        C        0.692308        0.9814809999999999        0.231834        0        
C3        C        0.769231        0.9814809999999999        0.231834        0        
C3        C        0.846154        0.9814809999999999        0.231834        0        
C3        C        0.923077        0.9814809999999999        0.231834        0        
C3        C        1.0        0.9814809999999999        0.231834        0        
C4        C        0.038462        0.925925        0.231834        0        
C4        C        0.115385        0.925925        0.231834        0        
C4        C        0.192308        0.925925        0.231834        0        
C4        C        0.269231        0.925925        0.231834        0        
C4        C        0.346154        0.925925        0.231834        0        
C4        C        0.423077        0.925925        0.231834        0        
C4        C        0.5        0.925925        0.231834        0        
C4        C        0.576923        0.925925        0.231834        0        
C4        C        0.653846        0.925925        0.231834        0        
C4        C        0.730769        0.925925        0.231834        0        
C4        C        0.807692        0.925925        0.231834        0        
C4        C        0.884615        0.925925        0.231834        0        
C4        C        0.961538        0.925925        0.231834        0        
C4        C        1.038462        0.925925        0.231834        0        
C1        C        0.0        0.018519        0.768166        0        
C2        C        0.038462        0.074075        0.768166        0        
C3        C        0.0        0.092592        0.768166        0        
C4        C        0.038462        0.037037        0.768166        0        
C1        C        0.0        0.12963        0.768166        0        
C2        C        0.038462        0.185185        0.768166        0        
C3        C        0.0        0.203703        0.768166        0        
C4        C        0.038462        0.148148        0.768166        0        
C1        C        0.0        0.24074099999999998        0.768166        0        
C2        C        0.038462        0.296297        0.768166        0        
C3        C        0.0        0.314815        0.768166        0        
C4        C        0.038462        0.259259        0.768166        0        
C1        C        0.0        0.351852        0.768166        0        
C2        C        0.038462        0.407408        0.768166        0        
C3        C        0.0        0.42592500000000005        0.768166        0        
C4        C        0.038462        0.37037        0.768166        0        
C1        C        0.0        0.46296300000000007        0.768166        0        
C2        C        0.038462        0.518519        0.768166        0        
C3        C        0.0        0.537037        0.768166        0        
C4        C        0.038462        0.481481        0.768166        0        
C1        C        0.0        0.574075        0.768166        0        
C2        C        0.038462        0.62963        0.768166        0        
C3        C        0.0        0.648148        0.768166        0        
C4        C        0.038462        0.592592        0.768166        0        
C_FG        C        0.076923        0.018519        0.768166        0.2        
C2        C        0.115385        0.074075        0.768166        0        
C3        C        0.076923        0.092592        0.768166        0        
C4        C        0.115385        0.037037        0.768166        0        
C_FG        C        0.076923        0.12963        0.768166        0.2        
C2        C        0.115385        0.185185        0.768166        0        
C3        C        0.076923        0.203703        0.768166        0        
C4        C        0.115385        0.148148        0.768166        0        
C_FG        C        0.076923        0.24074099999999998        0.768166        0.2        
C2        C        0.115385        0.296297        0.768166        0        
C3        C        0.076923        0.314815        0.768166        0        
C4        C        0.115385        0.259259        0.768166        0        
C_FG        C        0.076923        0.351852        0.768166        0.2        
C2        C        0.115385        0.407408        0.768166        0        
C3        C        0.076923        0.42592500000000005        0.768166        0        
C4        C        0.115385        0.37037        0.768166        0        
C_FG        C        0.076923        0.46296300000000007        0.768166        0.2        
C2        C        0.115385        0.518519        0.768166        0        
C3        C        0.076923        0.537037        0.768166        0        
C4        C        0.115385        0.481481        0.768166        0        
C_FG        C        0.076923        0.574075        0.768166        0.2        
C2        C        0.115385        0.62963        0.768166        0        
C3        C        0.076923        0.648148        0.768166        0        
C4        C        0.115385        0.592592        0.768166        0        
C1        C        0.153846        0.018519        0.768166        0        
C2        C        0.192308        0.074075        0.768166        0        
C3        C        0.153846        0.092592        0.768166        0        
C4        C        0.192308        0.037037        0.768166        0        
C1        C        0.153846        0.12963        0.768166        0        
C2        C        0.192308        0.185185        0.768166        0        
C3        C        0.153846        0.203703        0.768166        0        
C4        C        0.192308        0.148148        0.768166        0        
C1        C        0.153846        0.24074099999999998        0.768166        0        
C2        C        0.192308        0.296297        0.768166        0        
C3        C        0.153846        0.314815        0.768166        0        
C4        C        0.192308        0.259259        0.768166        0        
C1        C        0.153846        0.351852        0.768166        0        
C2        C        0.192308        0.407408        0.768166        0        
C3        C        0.153846        0.42592500000000005        0.768166        0        
C4        C        0.192308        0.37037        0.768166        0        
C1        C        0.153846        0.46296300000000007        0.768166        0        
C2        C        0.192308        0.518519        0.768166        0        
C3        C        0.153846        0.537037        0.768166        0        
C4        C        0.192308        0.481481        0.768166        0        
C1        C        0.153846        0.574075        0.768166        0        
C2        C        0.192308        0.62963        0.768166        0        
C3        C        0.153846        0.648148        0.768166        0        
C4        C        0.192308        0.592592        0.768166        0        
C_FG        C        0.230769        0.018519        0.768166        0.2        
C2        C        0.269231        0.074075        0.768166        0        
C3        C        0.230769        0.092592        0.768166        0        
C4        C        0.269231        0.037037        0.768166        0        
C_FG        C        0.230769        0.12963        0.768166        0.2        
C2        C        0.269231        0.185185        0.768166        0        
C3        C        0.230769        0.203703        0.768166        0        
C4        C        0.269231        0.148148        0.768166        0        
C_FG        C        0.230769        0.24074099999999998        0.768166        0.2        
C2        C        0.269231        0.296297        0.768166        0        
C3        C        0.230769        0.314815        0.768166        0        
C4        C        0.269231        0.259259        0.768166        0        
C_FG        C        0.230769        0.351852        0.768166        0.2        
C2        C        0.269231        0.407408        0.768166        0        
C3        C        0.230769        0.42592500000000005        0.768166        0        
C4        C        0.269231        0.37037        0.768166        0        
C_FG        C        0.230769        0.46296300000000007        0.768166        0.2        
C2        C        0.269231        0.518519        0.768166        0        
C3        C        0.230769        0.537037        0.768166        0        
C4        C        0.269231        0.481481        0.768166        0        
C_FG        C        0.230769        0.574075        0.768166        0.2        
C2        C        0.269231        0.62963        0.768166        0        
C3        C        0.230769        0.648148        0.768166        0        
C4        C        0.269231        0.592592        0.768166        0        
C1        C        0.307692        0.018519        0.768166        0        
C2        C        0.346154        0.074075        0.768166        0        
C3        C        0.307692        0.092592        0.768166        0        
C4        C        0.346154        0.037037        0.768166        0        
C1        C        0.307692        0.12963        0.768166        0        
C2        C        0.346154        0.185185        0.768166        0        
C3        C        0.307692        0.203703        0.768166        0        
C4        C        0.346154        0.148148        0.768166        0        
C1        C        0.307692        0.24074099999999998        0.768166        0        
C2        C        0.346154        0.296297        0.768166        0        
C3        C        0.307692        0.314815        0.768166        0        
C4        C        0.346154        0.259259        0.768166        0        
C1        C        0.307692        0.351852        0.768166        0        
C2        C        0.346154        0.407408        0.768166        0        
C3        C        0.307692        0.42592500000000005        0.768166        0        
C4        C        0.346154        0.37037        0.768166        0        
C1        C        0.307692        0.46296300000000007        0.768166        0        
C2        C        0.346154        0.518519        0.768166        0        
C3        C        0.307692        0.537037        0.768166        0        
C4        C        0.346154        0.481481        0.768166        0        
C1        C        0.307692        0.574075        0.768166        0        
C2        C        0.346154        0.62963        0.768166        0        
C3        C        0.307692        0.648148        0.768166        0        
C4        C        0.346154        0.592592        0.768166        0        
C1        C        0.384615        0.018519        0.768166        0        
C2        C        0.423077        0.074075        0.768166        0        
C3        C        0.384615        0.092592        0.768166        0        
C4        C        0.423077        0.037037        0.768166        0        
C1        C        0.384615        0.12963        0.768166        0        
C2        C        0.423077        0.185185        0.768166        0        
C3        C        0.384615        0.203703        0.768166        0        
C4        C        0.423077        0.148148        0.768166        0        
C1        C        0.384615        0.24074099999999998        0.768166        0        
C2        C        0.423077        0.296297        0.768166        0        
C3        C        0.384615        0.314815        0.768166        0        
C4        C        0.423077        0.259259        0.768166        0        
C1        C        0.384615        0.351852        0.768166        0        
C2        C        0.423077        0.407408        0.768166        0        
C3        C        0.384615        0.42592500000000005        0.768166        0        
C4        C        0.423077        0.37037        0.768166        0        
C1        C        0.384615        0.46296300000000007        0.768166        0        
C2        C        0.423077        0.518519        0.768166        0        
C3        C        0.384615        0.537037        0.768166        0        
C4        C        0.423077        0.481481        0.768166        0        
C1        C        0.384615        0.574075        0.768166        0        
C2        C        0.423077        0.62963        0.768166        0        
C3        C        0.384615        0.648148        0.768166        0        
C4        C        0.423077        0.592592        0.768166        0        
C1        C        0.461538        0.018519        0.768166        0        
C2        C        0.5        0.074075        0.768166        0        
C3        C        0.461538        0.092592        0.768166        0        
C4        C        0.5        0.037037        0.768166        0        
C1        C        0.461538        0.12963        0.768166        0        
C2        C        0.5        0.185185        0.768166        0        
C3        C        0.461538        0.203703        0.768166        0        
C4        C        0.5        0.148148        0.768166        0        
C1        C        0.461538        0.24074099999999998        0.768166        0        
C2        C        0.5        0.296297        0.768166        0        
C3        C        0.461538        0.314815        0.768166        0        
C4        C        0.5        0.259259        0.768166        0        
C1        C        0.461538        0.351852        0.768166        0        
C2        C        0.5        0.407408        0.768166        0        
C3        C        0.461538        0.42592500000000005        0.768166        0        
C4        C        0.5        0.37037        0.768166        0        
C1        C        0.461538        0.46296300000000007        0.768166        0        
C2        C        0.5        0.518519        0.768166        0        
C3        C        0.461538        0.537037        0.768166        0        
C4        C        0.5        0.481481        0.768166        0        
C1        C        0.461538        0.574075        0.768166        0        
C2        C        0.5        0.62963        0.768166        0        
C3        C        0.461538        0.648148        0.768166        0        
C4        C        0.5        0.592592        0.768166        0        
C1        C        0.538462        0.018519        0.768166        0        
C2        C        0.576923        0.074075        0.768166        0        
C3        C        0.538462        0.092592        0.768166        0        
C4        C        0.576923        0.037037        0.768166        0        
C1        C        0.538462        0.12963        0.768166        0        
C2        C        0.576923        0.185185        0.768166        0        
C3        C        0.538462        0.203703        0.768166        0        
C4        C        0.576923        0.148148        0.768166        0        
C1        C        0.538462        0.24074099999999998        0.768166        0        
C2        C        0.576923        0.296297        0.768166        0        
C3        C        0.538462        0.314815        0.768166        0        
C4        C        0.576923        0.259259        0.768166        0        
C1        C        0.538462        0.351852        0.768166        0        
C2        C        0.576923        0.407408        0.768166        0        
C3        C        0.538462        0.42592500000000005        0.768166        0        
C4        C        0.576923        0.37037        0.768166        0        
C1        C        0.538462        0.46296300000000007        0.768166        0        
C2        C        0.576923        0.518519        0.768166        0        
C3        C        0.538462        0.537037        0.768166        0        
C4        C        0.576923        0.481481        0.768166        0        
C1        C        0.538462        0.574075        0.768166        0        
C2        C        0.576923        0.62963        0.768166        0        
C3        C        0.538462        0.648148        0.768166        0        
C4        C        0.576923        0.592592        0.768166        0        
C1        C        0.615385        0.018519        0.768166        0        
C2        C        0.653846        0.074075        0.768166        0        
C3        C        0.615385        0.092592        0.768166        0        
C4        C        0.653846        0.037037        0.768166        0        
C1        C        0.615385        0.12963        0.768166        0        
C2        C        0.653846        0.185185        0.768166        0        
C3        C        0.615385        0.203703        0.768166        0        
C4        C        0.653846        0.148148        0.768166        0        
C1        C        0.615385        0.24074099999999998        0.768166        0        
C2        C        0.653846        0.296297        0.768166        0        
C3        C        0.615385        0.314815        0.768166        0        
C4        C        0.653846        0.259259        0.768166        0        
C1        C        0.615385        0.351852        0.768166        0        
C2        C        0.653846        0.407408        0.768166        0        
C3        C        0.615385        0.42592500000000005        0.768166        0        
C4        C        0.653846        0.37037        0.768166        0        
C1        C        0.615385        0.46296300000000007        0.768166        0        
C2        C        0.653846        0.518519        0.768166        0        
C3        C        0.615385        0.537037        0.768166        0        
C4        C        0.653846        0.481481        0.768166        0        
C1        C        0.615385        0.574075        0.768166        0        
C2        C        0.653846        0.62963        0.768166        0        
C3        C        0.615385        0.648148        0.768166        0        
C4        C        0.653846        0.592592        0.768166        0        
C1        C        0.692308        0.018519        0.768166        0        
C2        C        0.730769        0.074075        0.768166        0        
C3        C        0.692308        0.092592        0.768166        0        
C4        C        0.730769        0.037037        0.768166        0        
C1        C        0.692308        0.12963        0.768166        0        
C2        C        0.730769        0.185185        0.768166        0        
C3        C        0.692308        0.203703        0.768166        0        
C4        C        0.730769        0.148148        0.768166        0        
C1        C        0.692308        0.24074099999999998        0.768166        0        
C2        C        0.730769        0.296297        0.768166        0        
C3        C        0.692308        0.314815        0.768166        0        
C4        C        0.730769        0.259259        0.768166        0        
C1        C        0.692308        0.351852        0.768166        0        
C2        C        0.730769        0.407408        0.768166        0        
C3        C        0.692308        0.42592500000000005        0.768166        0        
C4        C        0.730769        0.37037        0.768166        0        
C1        C        0.692308        0.46296300000000007        0.768166        0        
C2        C        0.730769        0.518519        0.768166        0        
C3        C        0.692308        0.537037        0.768166        0        
C4        C        0.730769        0.481481        0.768166        0        
C1        C        0.692308        0.574075        0.768166        0        
C2        C        0.730769        0.62963        0.768166        0        
C3        C        0.692308        0.648148        0.768166        0        
C4        C        0.730769        0.592592        0.768166        0        
C1        C        0.769231        0.018519        0.768166        0        
C2        C        0.807692        0.074075        0.768166        0        
C3        C        0.769231        0.092592        0.768166        0        
C4        C        0.807692        0.037037        0.768166        0        
C1        C        0.769231        0.12963        0.768166        0        
C2        C        0.807692        0.185185        0.768166        0        
C3        C        0.769231        0.203703        0.768166        0        
C4        C        0.807692        0.148148        0.768166        0        
C1        C        0.769231        0.24074099999999998        0.768166        0        
C2        C        0.807692        0.296297        0.768166        0        
C3        C        0.769231        0.314815        0.768166        0        
C4        C        0.807692        0.259259        0.768166        0        
C1        C        0.769231        0.351852        0.768166        0        
C2        C        0.807692        0.407408        0.768166        0        
C3        C        0.769231        0.42592500000000005        0.768166        0        
C4        C        0.807692        0.37037        0.768166        0        
C1        C        0.769231        0.46296300000000007        0.768166        0        
C2        C        0.807692        0.518519        0.768166        0        
C3        C        0.769231        0.537037        0.768166        0        
C4        C        0.807692        0.481481        0.768166        0        
C1        C        0.769231        0.574075        0.768166        0        
C2        C        0.807692        0.62963        0.768166        0        
C3        C        0.769231        0.648148        0.768166        0        
C4        C        0.807692        0.592592        0.768166        0        
C_FG        C        0.846154        0.018519        0.768166        0.2        
C2        C        0.884615        0.074075        0.768166        0        
C3        C        0.846154        0.092592        0.768166        0        
C4        C        0.884615        0.037037        0.768166        0        
C_FG        C        0.846154        0.12963        0.768166        0.2        
C2        C        0.884615        0.185185        0.768166        0        
C3        C        0.846154        0.203703        0.768166        0        
C4        C        0.884615        0.148148        0.768166        0        
C_FG        C        0.846154        0.24074099999999998        0.768166        0.2        
C2        C        0.884615        0.296297        0.768166        0        
C3        C        0.846154        0.314815        0.768166        0        
C4        C        0.884615        0.259259        0.768166        0        
C_FG        C        0.846154        0.351852        0.768166        0.2        
C2        C        0.884615        0.407408        0.768166        0        
C3        C        0.846154        0.42592500000000005        0.768166        0        
C4        C        0.884615        0.37037        0.768166        0        
C_FG        C        0.846154        0.46296300000000007        0.768166        0.2        
C2        C        0.884615        0.518519        0.768166        0        
C3        C        0.846154        0.537037        0.768166        0        
C4        C        0.884615        0.481481        0.768166        0        
C_FG        C        0.846154        0.574075        0.768166        0.2        
C2        C        0.884615        0.62963        0.768166        0        
C3        C        0.846154        0.648148        0.768166        0        
C4        C        0.884615        0.592592        0.768166        0        
C1        C        0.923077        0.018519        0.768166        0        
C2        C        0.961538        0.074075        0.768166        0        
C3        C        0.923077        0.092592        0.768166        0        
C4        C        0.961538        0.037037        0.768166        0        
C1        C        0.923077        0.12963        0.768166        0        
C2        C        0.961538        0.185185        0.768166        0        
C3        C        0.923077        0.203703        0.768166        0        
C4        C        0.961538        0.148148        0.768166        0        
C1        C        0.923077        0.24074099999999998        0.768166        0        
C2        C        0.961538        0.296297        0.768166        0        
C3        C        0.923077        0.314815        0.768166        0        
C4        C        0.961538        0.259259        0.768166        0        
C1        C        0.923077        0.351852        0.768166        0        
C2        C        0.961538        0.407408        0.768166        0        
C3        C        0.923077        0.42592500000000005        0.768166        0        
C4        C        0.961538        0.37037        0.768166        0        
C1        C        0.923077        0.46296300000000007        0.768166        0        
C2        C        0.961538        0.518519        0.768166        0        
C3        C        0.923077        0.537037        0.768166        0        
C4        C        0.961538        0.481481        0.768166        0        
C1        C        0.923077        0.574075        0.768166        0        
C2        C        0.961538        0.62963        0.768166        0        
C3        C        0.923077        0.648148        0.768166        0        
C4        C        0.961538        0.592592        0.768166        0        
C_FG        C        1.0        0.018519        0.768166        0.2        
C2        C        1.038462        0.074075        0.768166        0        
C3        C        1.0        0.092592        0.768166        0        
C4        C        1.038462        0.037037        0.768166        0        
C_FG        C        1.0        0.12963        0.768166        0.2        
C2        C        1.038462        0.185185        0.768166        0        
C3        C        1.0        0.203703        0.768166        0        
C4        C        1.038462        0.148148        0.768166        0        
C_FG        C        1.0        0.24074099999999998        0.768166        0.2        
C2        C        1.038462        0.296297        0.768166        0        
C3        C        1.0        0.314815        0.768166        0        
C4        C        1.038462        0.259259        0.768166        0        
C_FG        C        1.0        0.351852        0.768166        0.2        
C2        C        1.038462        0.407408        0.768166        0        
C3        C        1.0        0.42592500000000005        0.768166        0        
C4        C        1.038462        0.37037        0.768166        0        
C_FG        C        1.0        0.46296300000000007        0.768166        0.2        
C2        C        1.038462        0.518519        0.768166        0        
C3        C        1.0        0.537037        0.768166        0        
C4        C        1.038462        0.481481        0.768166        0        
C_FG        C        1.0        0.574075        0.768166        0.2        
C2        C        1.038462        0.62963        0.768166        0        
C3        C        1.0        0.648148        0.768166        0        
C4        C        1.038462        0.592592        0.768166        0        
C1        C        0.0        0.685186        0.768166        0        
C_FG        C        0.076923        0.685186        0.768166        0.2        
C1        C        0.153846        0.685186        0.768166        0        
C_FG        C        0.230769        0.685186        0.768166        0.2        
C1        C        0.307692        0.685186        0.768166        0        
C1        C        0.384615        0.685186        0.768166        0        
C1        C        0.461538        0.685186        0.768166        0        
C1        C        0.538462        0.685186        0.768166        0        
C1        C        0.615385        0.685186        0.768166        0        
C1        C        0.692308        0.685186        0.768166        0        
C1        C        0.769231        0.685186        0.768166        0        
C_FG        C        0.846154        0.685186        0.768166        0.2        
C1        C        0.923077        0.685186        0.768166        0        
C_FG        C        1.0        0.685186        0.768166        0.2        
C2        C        0.038462        0.740741        0.768166        0        
C2        C        0.115385        0.740741        0.768166        0        
C2        C        0.192308        0.740741        0.768166        0        
C2        C        0.269231        0.740741        0.768166        0        
C2        C        0.346154        0.740741        0.768166        0        
C2        C        0.423077        0.740741        0.768166        0        
C2        C        0.5        0.740741        0.768166        0        
C2        C        0.576923        0.740741        0.768166        0        
C2        C        0.653846        0.740741        0.768166        0        
C2        C        0.730769        0.740741        0.768166        0        
C2        C        0.807692        0.740741        0.768166        0        
C2        C        0.884615        0.740741        0.768166        0        
C2        C        0.961538        0.740741        0.768166        0        
C2        C        1.038462        0.740741        0.768166        0        
C3        C        0.0        0.759259        0.768166        0        
C3        C        0.076923        0.759259        0.768166        0        
C3        C        0.153846        0.759259        0.768166        0        
C3        C        0.230769        0.759259        0.768166        0        
C3        C        0.307692        0.759259        0.768166        0        
C3        C        0.384615        0.759259        0.768166        0        
C3        C        0.461538        0.759259        0.768166        0        
C3        C        0.538462        0.759259        0.768166        0        
C3        C        0.615385        0.759259        0.768166        0        
C3        C        0.692308        0.759259        0.768166        0        
C3        C        0.769231        0.759259        0.768166        0        
C3        C        0.846154        0.759259        0.768166        0        
C3        C        0.923077        0.759259        0.768166        0        
C3        C        1.0        0.759259        0.768166        0        
C4        C        0.038462        0.703703        0.768166        0        
C4        C        0.115385        0.703703        0.768166        0        
C4        C        0.192308        0.703703        0.768166        0        
C4        C        0.269231        0.703703        0.768166        0        
C4        C        0.346154        0.703703        0.768166        0        
C4        C        0.423077        0.703703        0.768166        0        
C4        C        0.5        0.703703        0.768166        0        
C4        C        0.576923        0.703703        0.768166        0        
C4        C        0.653846        0.703703        0.768166        0        
C4        C        0.730769        0.703703        0.768166        0        
C4        C        0.807692        0.703703        0.768166        0        
C4        C        0.884615        0.703703        0.768166        0        
C4        C        0.961538        0.703703        0.768166        0        
C4        C        1.038462        0.703703        0.768166        0        
C1        C        0.0        0.796297        0.768166        0        
C_FG        C        0.076923        0.796297        0.768166        0.2        
C1        C        0.153846        0.796297        0.768166        0        
C_FG        C        0.230769        0.796297        0.768166        0.2        
C1        C        0.307692        0.796297        0.768166        0        
C1        C        0.384615        0.796297        0.768166        0        
C1        C        0.461538        0.796297        0.768166        0        
C1        C        0.538462        0.796297        0.768166        0        
C1        C        0.615385        0.796297        0.768166        0        
C1        C        0.692308        0.796297        0.768166        0        
C1        C        0.769231        0.796297        0.768166        0        
C_FG        C        0.846154        0.796297        0.768166        0.2        
C1        C        0.923077        0.796297        0.768166        0        
C_FG        C        1.0        0.796297        0.768166        0.2        
C2        C        0.038462        0.851852        0.768166        0        
C2        C        0.115385        0.851852        0.768166        0        
C2        C        0.192308        0.851852        0.768166        0        
C2        C        0.269231        0.851852        0.768166        0        
C2        C        0.346154        0.851852        0.768166        0        
C2        C        0.423077        0.851852        0.768166        0        
C2        C        0.5        0.851852        0.768166        0        
C2        C        0.576923        0.851852        0.768166        0        
C2        C        0.653846        0.851852        0.768166        0        
C2        C        0.730769        0.851852        0.768166        0        
C2        C        0.807692        0.851852        0.768166        0        
C2        C        0.884615        0.851852        0.768166        0        
C2        C        0.961538        0.851852        0.768166        0        
C2        C        1.038462        0.851852        0.768166        0        
C3        C        0.0        0.87037        0.768166        0        
C3        C        0.076923        0.87037        0.768166        0        
C3        C        0.153846        0.87037        0.768166        0        
C3        C        0.230769        0.87037        0.768166        0        
C3        C        0.307692        0.87037        0.768166        0        
C3        C        0.384615        0.87037        0.768166        0        
C3        C        0.461538        0.87037        0.768166        0        
C3        C        0.538462        0.87037        0.768166        0        
C3        C        0.615385        0.87037        0.768166        0        
C3        C        0.692308        0.87037        0.768166        0        
C3        C        0.769231        0.87037        0.768166        0        
C3        C        0.846154        0.87037        0.768166        0        
C3        C        0.923077        0.87037        0.768166        0        
C3        C        1.0        0.87037        0.768166        0        
C4        C        0.038462        0.814814        0.768166        0        
C4        C        0.115385        0.814814        0.768166        0        
C4        C        0.192308        0.814814        0.768166        0        
C4        C        0.269231        0.814814        0.768166        0        
C4        C        0.346154        0.814814        0.768166        0        
C4        C        0.423077        0.814814        0.768166        0        
C4        C        0.5        0.814814        0.768166        0        
C4        C        0.576923        0.814814        0.768166        0        
C4        C        0.653846        0.814814        0.768166        0        
C4        C        0.730769        0.814814        0.768166        0        
C4        C        0.807692        0.814814        0.768166        0        
C4        C        0.884615        0.814814        0.768166        0        
C4        C        0.961538        0.814814        0.768166        0        
C4        C        1.038462        0.814814        0.768166        0        
C1        C        0.0        0.907408        0.768166        0        
C_FG        C        0.076923        0.907408        0.768166        0.2        
C1        C        0.153846        0.907408        0.768166        0        
C_FG        C        0.230769        0.907408        0.768166        0.2        
C1        C        0.307692        0.907408        0.768166        0        
C1        C        0.384615        0.907408        0.768166        0        
C1        C        0.461538        0.907408        0.768166        0        
C1        C        0.538462        0.907408        0.768166        0        
C1        C        0.615385        0.907408        0.768166        0        
C1        C        0.692308        0.907408        0.768166        0        
C1        C        0.769231        0.907408        0.768166        0        
C_FG        C        0.846154        0.907408        0.768166        0.2        
C1        C        0.923077        0.907408        0.768166        0        
C_FG        C        1.0        0.907408        0.768166        0.2        
C2        C        0.038462        0.962963        0.768166        0        
C2        C        0.115385        0.962963        0.768166        0        
C2        C        0.192308        0.962963        0.768166        0        
C2        C        0.269231        0.962963        0.768166        0        
C2        C        0.346154        0.962963        0.768166        0        
C2        C        0.423077        0.962963        0.768166        0        
C2        C        0.5        0.962963        0.768166        0        
C2        C        0.576923        0.962963        0.768166        0        
C2        C        0.653846        0.962963        0.768166        0        
C2        C        0.730769        0.962963        0.768166        0        
C2        C        0.807692        0.962963        0.768166        0        
C2        C        0.884615        0.962963        0.768166        0        
C2        C        0.961538        0.962963        0.768166        0        
C2        C        1.038462        0.962963        0.768166        0        
C3        C        0.0        0.9814809999999999        0.768166        0        
C3        C        0.076923        0.9814809999999999        0.768166        0        
C3        C        0.153846        0.9814809999999999        0.768166        0        
C3        C        0.230769        0.9814809999999999        0.768166        0        
C3        C        0.307692        0.9814809999999999        0.768166        0        
C3        C        0.384615        0.9814809999999999        0.768166        0        
C3        C        0.461538        0.9814809999999999        0.768166        0        
C3        C        0.538462        0.9814809999999999        0.768166        0        
C3        C        0.615385        0.9814809999999999        0.768166        0        
C3        C        0.692308        0.9814809999999999        0.768166        0        
C3        C        0.769231        0.9814809999999999        0.768166        0        
C3        C        0.846154        0.9814809999999999        0.768166        0        
C3        C        0.923077        0.9814809999999999        0.768166        0        
C3        C        1.0        0.9814809999999999        0.768166        0        
C4        C        0.038462        0.925925        0.768166        0        
C4        C        0.115385        0.925925        0.768166        0        
C4        C        0.192308        0.925925        0.768166        0        
C4        C        0.269231        0.925925        0.768166        0        
C4        C        0.346154        0.925925        0.768166        0        
C4        C        0.423077        0.925925        0.768166        0        
C4        C        0.5        0.925925        0.768166        0        
C4        C        0.576923        0.925925        0.768166        0        
C4        C        0.653846        0.925925        0.768166        0        
C4        C        0.730769        0.925925        0.768166        0        
C4        C        0.807692        0.925925        0.768166        0        
C4        C        0.884615        0.925925        0.768166        0        
C4        C        0.961538        0.925925        0.768166        0        
C4        C        1.038462        0.925925        0.768166        0        
C1        C        0.0        0.018519        0.884083        0        
C2        C        0.038462        0.074075        0.884083        0        
C3        C        0.0        0.092592        0.884083        0        
C4        C        0.038462        0.037037        0.884083        0        
C1        C        0.0        0.12963        0.884083        0        
C2        C        0.038462        0.185185        0.884083        0        
C3        C        0.0        0.203703        0.884083        0        
C4        C        0.038462        0.148148        0.884083        0        
C1        C        0.0        0.24074099999999998        0.884083        0        
C2        C        0.038462        0.296297        0.884083        0        
C3        C        0.0        0.314815        0.884083        0        
C4        C        0.038462        0.259259        0.884083        0        
C1        C        0.0        0.351852        0.884083        0        
C2        C        0.038462        0.407408        0.884083        0        
C3        C        0.0        0.42592500000000005        0.884083        0        
C4        C        0.038462        0.37037        0.884083        0        
C1        C        0.0        0.46296300000000007        0.884083        0        
C2        C        0.038462        0.518519        0.884083        0        
C3        C        0.0        0.537037        0.884083        0        
C4        C        0.038462        0.481481        0.884083        0        
C1        C        0.0        0.574075        0.884083        0        
C2        C        0.038462        0.62963        0.884083        0        
C3        C        0.0        0.648148        0.884083        0        
C4        C        0.038462        0.592592        0.884083        0        
C1        C        0.076923        0.018519        0.884083        0        
C2        C        0.115385        0.074075        0.884083        0        
C3        C        0.076923        0.092592        0.884083        0        
C4        C        0.115385        0.037037        0.884083        0        
C1        C        0.076923        0.12963        0.884083        0        
C2        C        0.115385        0.185185        0.884083        0        
C3        C        0.076923        0.203703        0.884083        0        
C4        C        0.115385        0.148148        0.884083        0        
C1        C        0.076923        0.24074099999999998        0.884083        0        
C2        C        0.115385        0.296297        0.884083        0        
C3        C        0.076923        0.314815        0.884083        0        
C4        C        0.115385        0.259259        0.884083        0        
C1        C        0.076923        0.351852        0.884083        0        
C2        C        0.115385        0.407408        0.884083        0        
C3        C        0.076923        0.42592500000000005        0.884083        0        
C4        C        0.115385        0.37037        0.884083        0        
C1        C        0.076923        0.46296300000000007        0.884083        0        
C2        C        0.115385        0.518519        0.884083        0        
C3        C        0.076923        0.537037        0.884083        0        
C4        C        0.115385        0.481481        0.884083        0        
C1        C        0.076923        0.574075        0.884083        0        
C2        C        0.115385        0.62963        0.884083        0        
C3        C        0.076923        0.648148        0.884083        0        
C4        C        0.115385        0.592592        0.884083        0        
C1        C        0.153846        0.018519        0.884083        0        
C2        C        0.192308        0.074075        0.884083        0        
C3        C        0.153846        0.092592        0.884083        0        
C4        C        0.192308        0.037037        0.884083        0        
C1        C        0.153846        0.12963        0.884083        0        
C2        C        0.192308        0.185185        0.884083        0        
C3        C        0.153846        0.203703        0.884083        0        
C4        C        0.192308        0.148148        0.884083        0        
C1        C        0.153846        0.24074099999999998        0.884083        0        
C2        C        0.192308        0.296297        0.884083        0        
C3        C        0.153846        0.314815        0.884083        0        
C4        C        0.192308        0.259259        0.884083        0        
C1        C        0.153846        0.351852        0.884083        0        
C2        C        0.192308        0.407408        0.884083        0        
C3        C        0.153846        0.42592500000000005        0.884083        0        
C4        C        0.192308        0.37037        0.884083        0        
C1        C        0.153846        0.46296300000000007        0.884083        0        
C2        C        0.192308        0.518519        0.884083        0        
C3        C        0.153846        0.537037        0.884083        0        
C4        C        0.192308        0.481481        0.884083        0        
C1        C        0.153846        0.574075        0.884083        0        
C2        C        0.192308        0.62963        0.884083        0        
C3        C        0.153846        0.648148        0.884083        0        
C4        C        0.192308        0.592592        0.884083        0        
C1        C        0.230769        0.018519        0.884083        0        
C2        C        0.269231        0.074075        0.884083        0        
C3        C        0.230769        0.092592        0.884083        0        
C4        C        0.269231        0.037037        0.884083        0        
C1        C        0.230769        0.12963        0.884083        0        
C2        C        0.269231        0.185185        0.884083        0        
C3        C        0.230769        0.203703        0.884083        0        
C4        C        0.269231        0.148148        0.884083        0        
C1        C        0.230769        0.24074099999999998        0.884083        0        
C2        C        0.269231        0.296297        0.884083        0        
C3        C        0.230769        0.314815        0.884083        0        
C4        C        0.269231        0.259259        0.884083        0        
C1        C        0.230769        0.351852        0.884083        0        
C2        C        0.269231        0.407408        0.884083        0        
C3        C        0.230769        0.42592500000000005        0.884083        0        
C4        C        0.269231        0.37037        0.884083        0        
C1        C        0.230769        0.46296300000000007        0.884083        0        
C2        C        0.269231        0.518519        0.884083        0        
C3        C        0.230769        0.537037        0.884083        0        
C4        C        0.269231        0.481481        0.884083        0        
C1        C        0.230769        0.574075        0.884083        0        
C2        C        0.269231        0.62963        0.884083        0        
C3        C        0.230769        0.648148        0.884083        0        
C4        C        0.269231        0.592592        0.884083        0        
C1        C        0.307692        0.018519        0.884083        0        
C2        C        0.346154        0.074075        0.884083        0        
C3        C        0.307692        0.092592        0.884083        0        
C4        C        0.346154        0.037037        0.884083        0        
C1        C        0.307692        0.12963        0.884083        0        
C2        C        0.346154        0.185185        0.884083        0        
C3        C        0.307692        0.203703        0.884083        0        
C4        C        0.346154        0.148148        0.884083        0        
C1        C        0.307692        0.24074099999999998        0.884083        0        
C2        C        0.346154        0.296297        0.884083        0        
C3        C        0.307692        0.314815        0.884083        0        
C4        C        0.346154        0.259259        0.884083        0        
C1        C        0.307692        0.351852        0.884083        0        
C2        C        0.346154        0.407408        0.884083        0        
C3        C        0.307692        0.42592500000000005        0.884083        0        
C4        C        0.346154        0.37037        0.884083        0        
C1        C        0.307692        0.46296300000000007        0.884083        0        
C2        C        0.346154        0.518519        0.884083        0        
C3        C        0.307692        0.537037        0.884083        0        
C4        C        0.346154        0.481481        0.884083        0        
C1        C        0.307692        0.574075        0.884083        0        
C2        C        0.346154        0.62963        0.884083        0        
C3        C        0.307692        0.648148        0.884083        0        
C4        C        0.346154        0.592592        0.884083        0        
C1        C        0.384615        0.018519        0.884083        0        
C2        C        0.423077        0.074075        0.884083        0        
C3        C        0.384615        0.092592        0.884083        0        
C4        C        0.423077        0.037037        0.884083        0        
C1        C        0.384615        0.12963        0.884083        0        
C2        C        0.423077        0.185185        0.884083        0        
C3        C        0.384615        0.203703        0.884083        0        
C4        C        0.423077        0.148148        0.884083        0        
C1        C        0.384615        0.24074099999999998        0.884083        0        
C2        C        0.423077        0.296297        0.884083        0        
C3        C        0.384615        0.314815        0.884083        0        
C4        C        0.423077        0.259259        0.884083        0        
C1        C        0.384615        0.351852        0.884083        0        
C2        C        0.423077        0.407408        0.884083        0        
C3        C        0.384615        0.42592500000000005        0.884083        0        
C4        C        0.423077        0.37037        0.884083        0        
C1        C        0.384615        0.46296300000000007        0.884083        0        
C2        C        0.423077        0.518519        0.884083        0        
C3        C        0.384615        0.537037        0.884083        0        
C4        C        0.423077        0.481481        0.884083        0        
C1        C        0.384615        0.574075        0.884083        0        
C2        C        0.423077        0.62963        0.884083        0        
C3        C        0.384615        0.648148        0.884083        0        
C4        C        0.423077        0.592592        0.884083        0        
C1        C        0.461538        0.018519        0.884083        0        
C2        C        0.5        0.074075        0.884083        0        
C3        C        0.461538        0.092592        0.884083        0        
C4        C        0.5        0.037037        0.884083        0        
C1        C        0.461538        0.12963        0.884083        0        
C2        C        0.5        0.185185        0.884083        0        
C3        C        0.461538        0.203703        0.884083        0        
C4        C        0.5        0.148148        0.884083        0        
C1        C        0.461538        0.24074099999999998        0.884083        0        
C2        C        0.5        0.296297        0.884083        0        
C3        C        0.461538        0.314815        0.884083        0        
C4        C        0.5        0.259259        0.884083        0        
C1        C        0.461538        0.351852        0.884083        0        
C2        C        0.5        0.407408        0.884083        0        
C3        C        0.461538        0.42592500000000005        0.884083        0        
C4        C        0.5        0.37037        0.884083        0        
C1        C        0.461538        0.46296300000000007        0.884083        0        
C2        C        0.5        0.518519        0.884083        0        
C3        C        0.461538        0.537037        0.884083        0        
C4        C        0.5        0.481481        0.884083        0        
C1        C        0.461538        0.574075        0.884083        0        
C2        C        0.5        0.62963        0.884083        0        
C3        C        0.461538        0.648148        0.884083        0        
C4        C        0.5        0.592592        0.884083        0        
C1        C        0.538462        0.018519        0.884083        0        
C2        C        0.576923        0.074075        0.884083        0        
C3        C        0.538462        0.092592        0.884083        0        
C4        C        0.576923        0.037037        0.884083        0        
C1        C        0.538462        0.12963        0.884083        0        
C2        C        0.576923        0.185185        0.884083        0        
C3        C        0.538462        0.203703        0.884083        0        
C4        C        0.576923        0.148148        0.884083        0        
C1        C        0.538462        0.24074099999999998        0.884083        0        
C2        C        0.576923        0.296297        0.884083        0        
C3        C        0.538462        0.314815        0.884083        0        
C4        C        0.576923        0.259259        0.884083        0        
C1        C        0.538462        0.351852        0.884083        0        
C2        C        0.576923        0.407408        0.884083        0        
C3        C        0.538462        0.42592500000000005        0.884083        0        
C4        C        0.576923        0.37037        0.884083        0        
C1        C        0.538462        0.46296300000000007        0.884083        0        
C2        C        0.576923        0.518519        0.884083        0        
C3        C        0.538462        0.537037        0.884083        0        
C4        C        0.576923        0.481481        0.884083        0        
C1        C        0.538462        0.574075        0.884083        0        
C2        C        0.576923        0.62963        0.884083        0        
C3        C        0.538462        0.648148        0.884083        0        
C4        C        0.576923        0.592592        0.884083        0        
C1        C        0.615385        0.018519        0.884083        0        
C2        C        0.653846        0.074075        0.884083        0        
C3        C        0.615385        0.092592        0.884083        0        
C4        C        0.653846        0.037037        0.884083        0        
C1        C        0.615385        0.12963        0.884083        0        
C2        C        0.653846        0.185185        0.884083        0        
C3        C        0.615385        0.203703        0.884083        0        
C4        C        0.653846        0.148148        0.884083        0        
C1        C        0.615385        0.24074099999999998        0.884083        0        
C2        C        0.653846        0.296297        0.884083        0        
C3        C        0.615385        0.314815        0.884083        0        
C4        C        0.653846        0.259259        0.884083        0        
C1        C        0.615385        0.351852        0.884083        0        
C2        C        0.653846        0.407408        0.884083        0        
C3        C        0.615385        0.42592500000000005        0.884083        0        
C4        C        0.653846        0.37037        0.884083        0        
C1        C        0.615385        0.46296300000000007        0.884083        0        
C2        C        0.653846        0.518519        0.884083        0        
C3        C        0.615385        0.537037        0.884083        0        
C4        C        0.653846        0.481481        0.884083        0        
C1        C        0.615385        0.574075        0.884083        0        
C2        C        0.653846        0.62963        0.884083        0        
C3        C        0.615385        0.648148        0.884083        0        
C4        C        0.653846        0.592592        0.884083        0        
C1        C        0.692308        0.018519        0.884083        0        
C2        C        0.730769        0.074075        0.884083        0        
C3        C        0.692308        0.092592        0.884083        0        
C4        C        0.730769        0.037037        0.884083        0        
C1        C        0.692308        0.12963        0.884083        0        
C2        C        0.730769        0.185185        0.884083        0        
C3        C        0.692308        0.203703        0.884083        0        
C4        C        0.730769        0.148148        0.884083        0        
C1        C        0.692308        0.24074099999999998        0.884083        0        
C2        C        0.730769        0.296297        0.884083        0        
C3        C        0.692308        0.314815        0.884083        0        
C4        C        0.730769        0.259259        0.884083        0        
C1        C        0.692308        0.351852        0.884083        0        
C2        C        0.730769        0.407408        0.884083        0        
C3        C        0.692308        0.42592500000000005        0.884083        0        
C4        C        0.730769        0.37037        0.884083        0        
C1        C        0.692308        0.46296300000000007        0.884083        0        
C2        C        0.730769        0.518519        0.884083        0        
C3        C        0.692308        0.537037        0.884083        0        
C4        C        0.730769        0.481481        0.884083        0        
C1        C        0.692308        0.574075        0.884083        0        
C2        C        0.730769        0.62963        0.884083        0        
C3        C        0.692308        0.648148        0.884083        0        
C4        C        0.730769        0.592592        0.884083        0        
C1        C        0.769231        0.018519        0.884083        0        
C2        C        0.807692        0.074075        0.884083        0        
C3        C        0.769231        0.092592        0.884083        0        
C4        C        0.807692        0.037037        0.884083        0        
C1        C        0.769231        0.12963        0.884083        0        
C2        C        0.807692        0.185185        0.884083        0        
C3        C        0.769231        0.203703        0.884083        0        
C4        C        0.807692        0.148148        0.884083        0        
C1        C        0.769231        0.24074099999999998        0.884083        0        
C2        C        0.807692        0.296297        0.884083        0        
C3        C        0.769231        0.314815        0.884083        0        
C4        C        0.807692        0.259259        0.884083        0        
C1        C        0.769231        0.351852        0.884083        0        
C2        C        0.807692        0.407408        0.884083        0        
C3        C        0.769231        0.42592500000000005        0.884083        0        
C4        C        0.807692        0.37037        0.884083        0        
C1        C        0.769231        0.46296300000000007        0.884083        0        
C2        C        0.807692        0.518519        0.884083        0        
C3        C        0.769231        0.537037        0.884083        0        
C4        C        0.807692        0.481481        0.884083        0        
C1        C        0.769231        0.574075        0.884083        0        
C2        C        0.807692        0.62963        0.884083        0        
C3        C        0.769231        0.648148        0.884083        0        
C4        C        0.807692        0.592592        0.884083        0        
C1        C        0.846154        0.018519        0.884083        0        
C2        C        0.884615        0.074075        0.884083        0        
C3        C        0.846154        0.092592        0.884083        0        
C4        C        0.884615        0.037037        0.884083        0        
C1        C        0.846154        0.12963        0.884083        0        
C2        C        0.884615        0.185185        0.884083        0        
C3        C        0.846154        0.203703        0.884083        0        
C4        C        0.884615        0.148148        0.884083        0        
C1        C        0.846154        0.24074099999999998        0.884083        0        
C2        C        0.884615        0.296297        0.884083        0        
C3        C        0.846154        0.314815        0.884083        0        
C4        C        0.884615        0.259259        0.884083        0        
C1        C        0.846154        0.351852        0.884083        0        
C2        C        0.884615        0.407408        0.884083        0        
C3        C        0.846154        0.42592500000000005        0.884083        0        
C4        C        0.884615        0.37037        0.884083        0        
C1        C        0.846154        0.46296300000000007        0.884083        0        
C2        C        0.884615        0.518519        0.884083        0        
C3        C        0.846154        0.537037        0.884083        0        
C4        C        0.884615        0.481481        0.884083        0        
C1        C        0.846154        0.574075        0.884083        0        
C2        C        0.884615        0.62963        0.884083        0        
C3        C        0.846154        0.648148        0.884083        0        
C4        C        0.884615        0.592592        0.884083        0        
C1        C        0.923077        0.018519        0.884083        0        
C2        C        0.961538        0.074075        0.884083        0        
C3        C        0.923077        0.092592        0.884083        0        
C4        C        0.961538        0.037037        0.884083        0        
C1        C        0.923077        0.12963        0.884083        0        
C2        C        0.961538        0.185185        0.884083        0        
C3        C        0.923077        0.203703        0.884083        0        
C4        C        0.961538        0.148148        0.884083        0        
C1        C        0.923077        0.24074099999999998        0.884083        0        
C2        C        0.961538        0.296297        0.884083        0        
C3        C        0.923077        0.314815        0.884083        0        
C4        C        0.961538        0.259259        0.884083        0        
C1        C        0.923077        0.351852        0.884083        0        
C2        C        0.961538        0.407408        0.884083        0        
C3        C        0.923077        0.42592500000000005        0.884083        0        
C4        C        0.961538        0.37037        0.884083        0        
C1        C        0.923077        0.46296300000000007        0.884083        0        
C2        C        0.961538        0.518519        0.884083        0        
C3        C        0.923077        0.537037        0.884083        0        
C4        C        0.961538        0.481481        0.884083        0        
C1        C        0.923077        0.574075        0.884083        0        
C2        C        0.961538        0.62963        0.884083        0        
C3        C        0.923077        0.648148        0.884083        0        
C4        C        0.961538        0.592592        0.884083        0        
C1        C        1.0        0.018519        0.884083        0        
C2        C        1.038462        0.074075        0.884083        0        
C3        C        1.0        0.092592        0.884083        0        
C4        C        1.038462        0.037037        0.884083        0        
C1        C        1.0        0.12963        0.884083        0        
C2        C        1.038462        0.185185        0.884083        0        
C3        C        1.0        0.203703        0.884083        0        
C4        C        1.038462        0.148148        0.884083        0        
C1        C        1.0        0.24074099999999998        0.884083        0        
C2        C        1.038462        0.296297        0.884083        0        
C3        C        1.0        0.314815        0.884083        0        
C4        C        1.038462        0.259259        0.884083        0        
C1        C        1.0        0.351852        0.884083        0        
C2        C        1.038462        0.407408        0.884083        0        
C3        C        1.0        0.42592500000000005        0.884083        0        
C4        C        1.038462        0.37037        0.884083        0        
C1        C        1.0        0.46296300000000007        0.884083        0        
C2        C        1.038462        0.518519        0.884083        0        
C3        C        1.0        0.537037        0.884083        0        
C4        C        1.038462        0.481481        0.884083        0        
C1        C        1.0        0.574075        0.884083        0        
C2        C        1.038462        0.62963        0.884083        0        
C3        C        1.0        0.648148        0.884083        0        
C4        C        1.038462        0.592592        0.884083        0        
C1        C        0.0        0.685186        0.884083        0        
C1        C        0.076923        0.685186        0.884083        0        
C1        C        0.153846        0.685186        0.884083        0        
C1        C        0.230769        0.685186        0.884083        0        
C1        C        0.307692        0.685186        0.884083        0        
C1        C        0.384615        0.685186        0.884083        0        
C1        C        0.461538        0.685186        0.884083        0        
C1        C        0.538462        0.685186        0.884083        0        
C1        C        0.615385        0.685186        0.884083        0        
C1        C        0.692308        0.685186        0.884083        0        
C1        C        0.769231        0.685186        0.884083        0        
C1        C        0.846154        0.685186        0.884083        0        
C1        C        0.923077        0.685186        0.884083        0        
C1        C        1.0        0.685186        0.884083        0        
C2        C        0.038462        0.740741        0.884083        0        
C2        C        0.115385        0.740741        0.884083        0        
C2        C        0.192308        0.740741        0.884083        0        
C2        C        0.269231        0.740741        0.884083        0        
C2        C        0.346154        0.740741        0.884083        0        
C2        C        0.423077        0.740741        0.884083        0        
C2        C        0.5        0.740741        0.884083        0        
C2        C        0.576923        0.740741        0.884083        0        
C2        C        0.653846        0.740741        0.884083        0        
C2        C        0.730769        0.740741        0.884083        0        
C2        C        0.807692        0.740741        0.884083        0        
C2        C        0.884615        0.740741        0.884083        0        
C2        C        0.961538        0.740741        0.884083        0        
C2        C        1.038462        0.740741        0.884083        0        
C3        C        0.0        0.759259        0.884083        0        
C3        C        0.076923        0.759259        0.884083        0        
C3        C        0.153846        0.759259        0.884083        0        
C3        C        0.230769        0.759259        0.884083        0        
C3        C        0.307692        0.759259        0.884083        0        
C3        C        0.384615        0.759259        0.884083        0        
C3        C        0.461538        0.759259        0.884083        0        
C3        C        0.538462        0.759259        0.884083        0        
C3        C        0.615385        0.759259        0.884083        0        
C3        C        0.692308        0.759259        0.884083        0        
C3        C        0.769231        0.759259        0.884083        0        
C3        C        0.846154        0.759259        0.884083        0        
C3        C        0.923077        0.759259        0.884083        0        
C3        C        1.0        0.759259        0.884083        0        
C4        C        0.038462        0.703703        0.884083        0        
C4        C        0.115385        0.703703        0.884083        0        
C4        C        0.192308        0.703703        0.884083        0        
C4        C        0.269231        0.703703        0.884083        0        
C4        C        0.346154        0.703703        0.884083        0        
C4        C        0.423077        0.703703        0.884083        0        
C4        C        0.5        0.703703        0.884083        0        
C4        C        0.576923        0.703703        0.884083        0        
C4        C        0.653846        0.703703        0.884083        0        
C4        C        0.730769        0.703703        0.884083        0        
C4        C        0.807692        0.703703        0.884083        0        
C4        C        0.884615        0.703703        0.884083        0        
C4        C        0.961538        0.703703        0.884083        0        
C4        C        1.038462        0.703703        0.884083        0        
C1        C        0.0        0.796297        0.884083        0        
C1        C        0.076923        0.796297        0.884083        0        
C1        C        0.153846        0.796297        0.884083        0        
C1        C        0.230769        0.796297        0.884083        0        
C1        C        0.307692        0.796297        0.884083        0        
C1        C        0.384615        0.796297        0.884083        0        
C1        C        0.461538        0.796297        0.884083        0        
C1        C        0.538462        0.796297        0.884083        0        
C1        C        0.615385        0.796297        0.884083        0        
C1        C        0.692308        0.796297        0.884083        0        
C1        C        0.769231        0.796297        0.884083        0        
C1        C        0.846154        0.796297        0.884083        0        
C1        C        0.923077        0.796297        0.884083        0        
C1        C        1.0        0.796297        0.884083        0        
C2        C        0.038462        0.851852        0.884083        0        
C2        C        0.115385        0.851852        0.884083        0        
C2        C        0.192308        0.851852        0.884083        0        
C2        C        0.269231        0.851852        0.884083        0        
C2        C        0.346154        0.851852        0.884083        0        
C2        C        0.423077        0.851852        0.884083        0        
C2        C        0.5        0.851852        0.884083        0        
C2        C        0.576923        0.851852        0.884083        0        
C2        C        0.653846        0.851852        0.884083        0        
C2        C        0.730769        0.851852        0.884083        0        
C2        C        0.807692        0.851852        0.884083        0        
C2        C        0.884615        0.851852        0.884083        0        
C2        C        0.961538        0.851852        0.884083        0        
C2        C        1.038462        0.851852        0.884083        0        
C3        C        0.0        0.87037        0.884083        0        
C3        C        0.076923        0.87037        0.884083        0        
C3        C        0.153846        0.87037        0.884083        0        
C3        C        0.230769        0.87037        0.884083        0        
C3        C        0.307692        0.87037        0.884083        0        
C3        C        0.384615        0.87037        0.884083        0        
C3        C        0.461538        0.87037        0.884083        0        
C3        C        0.538462        0.87037        0.884083        0        
C3        C        0.615385        0.87037        0.884083        0        
C3        C        0.692308        0.87037        0.884083        0        
C3        C        0.769231        0.87037        0.884083        0        
C3        C        0.846154        0.87037        0.884083        0        
C3        C        0.923077        0.87037        0.884083        0        
C3        C        1.0        0.87037        0.884083        0        
C4        C        0.038462        0.814814        0.884083        0        
C4        C        0.115385        0.814814        0.884083        0        
C4        C        0.192308        0.814814        0.884083        0        
C4        C        0.269231        0.814814        0.884083        0        
C4        C        0.346154        0.814814        0.884083        0        
C4        C        0.423077        0.814814        0.884083        0        
C4        C        0.5        0.814814        0.884083        0        
C4        C        0.576923        0.814814        0.884083        0        
C4        C        0.653846        0.814814        0.884083        0        
C4        C        0.730769        0.814814        0.884083        0        
C4        C        0.807692        0.814814        0.884083        0        
C4        C        0.884615        0.814814        0.884083        0        
C4        C        0.961538        0.814814        0.884083        0        
C4        C        1.038462        0.814814        0.884083        0        
C1        C        0.0        0.907408        0.884083        0        
C1        C        0.076923        0.907408        0.884083        0        
C1        C        0.153846        0.907408        0.884083        0        
C1        C        0.230769        0.907408        0.884083        0        
C1        C        0.307692        0.907408        0.884083        0        
C1        C        0.384615        0.907408        0.884083        0        
C1        C        0.461538        0.907408        0.884083        0        
C1        C        0.538462        0.907408        0.884083        0        
C1        C        0.615385        0.907408        0.884083        0        
C1        C        0.692308        0.907408        0.884083        0        
C1        C        0.769231        0.907408        0.884083        0        
C1        C        0.846154        0.907408        0.884083        0        
C1        C        0.923077        0.907408        0.884083        0        
C1        C        1.0        0.907408        0.884083        0        
C2        C        0.038462        0.962963        0.884083        0        
C2        C        0.115385        0.962963        0.884083        0        
C2        C        0.192308        0.962963        0.884083        0        
C2        C        0.269231        0.962963        0.884083        0        
C2        C        0.346154        0.962963        0.884083        0        
C2        C        0.423077        0.962963        0.884083        0        
C2        C        0.5        0.962963        0.884083        0        
C2        C        0.576923        0.962963        0.884083        0        
C2        C        0.653846        0.962963        0.884083        0        
C2        C        0.730769        0.962963        0.884083        0        
C2        C        0.807692        0.962963        0.884083        0        
C2        C        0.884615        0.962963        0.884083        0        
C2        C        0.961538        0.962963        0.884083        0        
C2        C        1.038462        0.962963        0.884083        0        
C3        C        0.0        0.9814809999999999        0.884083        0        
C3        C        0.076923        0.9814809999999999        0.884083        0        
C3        C        0.153846        0.9814809999999999        0.884083        0        
C3        C        0.230769        0.9814809999999999        0.884083        0        
C3        C        0.307692        0.9814809999999999        0.884083        0        
C3        C        0.384615        0.9814809999999999        0.884083        0        
C3        C        0.461538        0.9814809999999999        0.884083        0        
C3        C        0.538462        0.9814809999999999        0.884083        0        
C3        C        0.615385        0.9814809999999999        0.884083        0        
C3        C        0.692308        0.9814809999999999        0.884083        0        
C3        C        0.769231        0.9814809999999999        0.884083        0        
C3        C        0.846154        0.9814809999999999        0.884083        0        
C3        C        0.923077        0.9814809999999999        0.884083        0        
C3        C        1.0        0.9814809999999999        0.884083        0        
C4        C        0.038462        0.925925        0.884083        0        
C4        C        0.115385        0.925925        0.884083        0        
C4        C        0.192308        0.925925        0.884083        0        
C4        C        0.269231        0.925925        0.884083        0        
C4        C        0.346154        0.925925        0.884083        0        
C4        C        0.423077        0.925925        0.884083        0        
C4        C        0.5        0.925925        0.884083        0        
C4        C        0.576923        0.925925        0.884083        0        
C4        C        0.653846        0.925925        0.884083        0        
C4        C        0.730769        0.925925        0.884083        0        
C4        C        0.807692        0.925925        0.884083        0        
C4        C        0.884615        0.925925        0.884083        0        
C4        C        0.961538        0.925925        0.884083        0        
C4        C        1.038462        0.925925        0.884083        0        
C1        C        0.0        0.018519        1.0        0        
C2        C        0.038462        0.074075        1.0        0        
C3        C        0.0        0.092592        1.0        0        
C4        C        0.038462        0.037037        1.0        0        
C1        C        0.0        0.12963        1.0        0        
C2        C        0.038462        0.185185        1.0        0        
C3        C        0.0        0.203703        1.0        0        
C4        C        0.038462        0.148148        1.0        0        
C1        C        0.0        0.24074099999999998        1.0        0        
C2        C        0.038462        0.296297        1.0        0        
C3        C        0.0        0.314815        1.0        0        
C4        C        0.038462        0.259259        1.0        0        
C1        C        0.0        0.351852        1.0        0        
C2        C        0.038462        0.407408        1.0        0        
C3        C        0.0        0.42592500000000005        1.0        0        
C4        C        0.038462        0.37037        1.0        0        
C1        C        0.0        0.46296300000000007        1.0        0        
C2        C        0.038462        0.518519        1.0        0        
C3        C        0.0        0.537037        1.0        0        
C4        C        0.038462        0.481481        1.0        0        
C1        C        0.0        0.574075        1.0        0        
C2        C        0.038462        0.62963        1.0        0        
C3        C        0.0        0.648148        1.0        0        
C4        C        0.038462        0.592592        1.0        0        
C1        C        0.076923        0.018519        1.0        0        
C2        C        0.115385        0.074075        1.0        0        
C3        C        0.076923        0.092592        1.0        0        
C4        C        0.115385        0.037037        1.0        0        
C1        C        0.076923        0.12963        1.0        0        
C2        C        0.115385        0.185185        1.0        0        
C3        C        0.076923        0.203703        1.0        0        
C4        C        0.115385        0.148148        1.0        0        
C1        C        0.076923        0.24074099999999998        1.0        0        
C2        C        0.115385        0.296297        1.0        0        
C3        C        0.076923        0.314815        1.0        0        
C4        C        0.115385        0.259259        1.0        0        
C1        C        0.076923        0.351852        1.0        0        
C2        C        0.115385        0.407408        1.0        0        
C3        C        0.076923        0.42592500000000005        1.0        0        
C4        C        0.115385        0.37037        1.0        0        
C1        C        0.076923        0.46296300000000007        1.0        0        
C2        C        0.115385        0.518519        1.0        0        
C3        C        0.076923        0.537037        1.0        0        
C4        C        0.115385        0.481481        1.0        0        
C1        C        0.076923        0.574075        1.0        0        
C2        C        0.115385        0.62963        1.0        0        
C3        C        0.076923        0.648148        1.0        0        
C4        C        0.115385        0.592592        1.0        0        
C1        C        0.153846        0.018519        1.0        0        
C2        C        0.192308        0.074075        1.0        0        
C3        C        0.153846        0.092592        1.0        0        
C4        C        0.192308        0.037037        1.0        0        
C1        C        0.153846        0.12963        1.0        0        
C2        C        0.192308        0.185185        1.0        0        
C3        C        0.153846        0.203703        1.0        0        
C4        C        0.192308        0.148148        1.0        0        
C1        C        0.153846        0.24074099999999998        1.0        0        
C2        C        0.192308        0.296297        1.0        0        
C3        C        0.153846        0.314815        1.0        0        
C4        C        0.192308        0.259259        1.0        0        
C1        C        0.153846        0.351852        1.0        0        
C2        C        0.192308        0.407408        1.0        0        
C3        C        0.153846        0.42592500000000005        1.0        0        
C4        C        0.192308        0.37037        1.0        0        
C1        C        0.153846        0.46296300000000007        1.0        0        
C2        C        0.192308        0.518519        1.0        0        
C3        C        0.153846        0.537037        1.0        0        
C4        C        0.192308        0.481481        1.0        0        
C1        C        0.153846        0.574075        1.0        0        
C2        C        0.192308        0.62963        1.0        0        
C3        C        0.153846        0.648148        1.0        0        
C4        C        0.192308        0.592592        1.0        0        
C1        C        0.230769        0.018519        1.0        0        
C2        C        0.269231        0.074075        1.0        0        
C3        C        0.230769        0.092592        1.0        0        
C4        C        0.269231        0.037037        1.0        0        
C1        C        0.230769        0.12963        1.0        0        
C2        C        0.269231        0.185185        1.0        0        
C3        C        0.230769        0.203703        1.0        0        
C4        C        0.269231        0.148148        1.0        0        
C1        C        0.230769        0.24074099999999998        1.0        0        
C2        C        0.269231        0.296297        1.0        0        
C3        C        0.230769        0.314815        1.0        0        
C4        C        0.269231        0.259259        1.0        0        
C1        C        0.230769        0.351852        1.0        0        
C2        C        0.269231        0.407408        1.0        0        
C3        C        0.230769        0.42592500000000005        1.0        0        
C4        C        0.269231        0.37037        1.0        0        
C1        C        0.230769        0.46296300000000007        1.0        0        
C2        C        0.269231        0.518519        1.0        0        
C3        C        0.230769        0.537037        1.0        0        
C4        C        0.269231        0.481481        1.0        0        
C1        C        0.230769        0.574075        1.0        0        
C2        C        0.269231        0.62963        1.0        0        
C3        C        0.230769        0.648148        1.0        0        
C4        C        0.269231        0.592592        1.0        0        
C1        C        0.307692        0.018519        1.0        0        
C2        C        0.346154        0.074075        1.0        0        
C3        C        0.307692        0.092592        1.0        0        
C4        C        0.346154        0.037037        1.0        0        
C1        C        0.307692        0.12963        1.0        0        
C2        C        0.346154        0.185185        1.0        0        
C3        C        0.307692        0.203703        1.0        0        
C4        C        0.346154        0.148148        1.0        0        
C1        C        0.307692        0.24074099999999998        1.0        0        
C2        C        0.346154        0.296297        1.0        0        
C3        C        0.307692        0.314815        1.0        0        
C4        C        0.346154        0.259259        1.0        0        
C1        C        0.307692        0.351852        1.0        0        
C2        C        0.346154        0.407408        1.0        0        
C3        C        0.307692        0.42592500000000005        1.0        0        
C4        C        0.346154        0.37037        1.0        0        
C1        C        0.307692        0.46296300000000007        1.0        0        
C2        C        0.346154        0.518519        1.0        0        
C3        C        0.307692        0.537037        1.0        0        
C4        C        0.346154        0.481481        1.0        0        
C1        C        0.307692        0.574075        1.0        0        
C2        C        0.346154        0.62963        1.0        0        
C3        C        0.307692        0.648148        1.0        0        
C4        C        0.346154        0.592592        1.0        0        
C1        C        0.384615        0.018519        1.0        0        
C2        C        0.423077        0.074075        1.0        0        
C3        C        0.384615        0.092592        1.0        0        
C4        C        0.423077        0.037037        1.0        0        
C1        C        0.384615        0.12963        1.0        0        
C2        C        0.423077        0.185185        1.0        0        
C3        C        0.384615        0.203703        1.0        0        
C4        C        0.423077        0.148148        1.0        0        
C1        C        0.384615        0.24074099999999998        1.0        0        
C2        C        0.423077        0.296297        1.0        0        
C3        C        0.384615        0.314815        1.0        0        
C4        C        0.423077        0.259259        1.0        0        
C1        C        0.384615        0.351852        1.0        0        
C2        C        0.423077        0.407408        1.0        0        
C3        C        0.384615        0.42592500000000005        1.0        0        
C4        C        0.423077        0.37037        1.0        0        
C1        C        0.384615        0.46296300000000007        1.0        0        
C2        C        0.423077        0.518519        1.0        0        
C3        C        0.384615        0.537037        1.0        0        
C4        C        0.423077        0.481481        1.0        0        
C1        C        0.384615        0.574075        1.0        0        
C2        C        0.423077        0.62963        1.0        0        
C3        C        0.384615        0.648148        1.0        0        
C4        C        0.423077        0.592592        1.0        0        
C1        C        0.461538        0.018519        1.0        0        
C2        C        0.5        0.074075        1.0        0        
C3        C        0.461538        0.092592        1.0        0        
C4        C        0.5        0.037037        1.0        0        
C1        C        0.461538        0.12963        1.0        0        
C2        C        0.5        0.185185        1.0        0        
C3        C        0.461538        0.203703        1.0        0        
C4        C        0.5        0.148148        1.0        0        
C1        C        0.461538        0.24074099999999998        1.0        0        
C2        C        0.5        0.296297        1.0        0        
C3        C        0.461538        0.314815        1.0        0        
C4        C        0.5        0.259259        1.0        0        
C1        C        0.461538        0.351852        1.0        0        
C2        C        0.5        0.407408        1.0        0        
C3        C        0.461538        0.42592500000000005        1.0        0        
C4        C        0.5        0.37037        1.0        0        
C1        C        0.461538        0.46296300000000007        1.0        0        
C2        C        0.5        0.518519        1.0        0        
C3        C        0.461538        0.537037        1.0        0        
C4        C        0.5        0.481481        1.0        0        
C1        C        0.461538        0.574075        1.0        0        
C2        C        0.5        0.62963        1.0        0        
C3        C        0.461538        0.648148        1.0        0        
C4        C        0.5        0.592592        1.0        0        
C1        C        0.538462        0.018519        1.0        0        
C2        C        0.576923        0.074075        1.0        0        
C3        C        0.538462        0.092592        1.0        0        
C4        C        0.576923        0.037037        1.0        0        
C1        C        0.538462        0.12963        1.0        0        
C2        C        0.576923        0.185185        1.0        0        
C3        C        0.538462        0.203703        1.0        0        
C4        C        0.576923        0.148148        1.0        0        
C1        C        0.538462        0.24074099999999998        1.0        0        
C2        C        0.576923        0.296297        1.0        0        
C3        C        0.538462        0.314815        1.0        0        
C4        C        0.576923        0.259259        1.0        0        
C1        C        0.538462        0.351852        1.0        0        
C2        C        0.576923        0.407408        1.0        0        
C3        C        0.538462        0.42592500000000005        1.0        0        
C4        C        0.576923        0.37037        1.0        0        
C1        C        0.538462        0.46296300000000007        1.0        0        
C2        C        0.576923        0.518519        1.0        0        
C3        C        0.538462        0.537037        1.0        0        
C4        C        0.576923        0.481481        1.0        0        
C1        C        0.538462        0.574075        1.0        0        
C2        C        0.576923        0.62963        1.0        0        
C3        C        0.538462        0.648148        1.0        0        
C4        C        0.576923        0.592592        1.0        0        
C1        C        0.615385        0.018519        1.0        0        
C2        C        0.653846        0.074075        1.0        0        
C3        C        0.615385        0.092592        1.0        0        
C4        C        0.653846        0.037037        1.0        0        
C1        C        0.615385        0.12963        1.0        0        
C2        C        0.653846        0.185185        1.0        0        
C3        C        0.615385        0.203703        1.0        0        
C4        C        0.653846        0.148148        1.0        0        
C1        C        0.615385        0.24074099999999998        1.0        0        
C2        C        0.653846        0.296297        1.0        0        
C3        C        0.615385        0.314815        1.0        0        
C4        C        0.653846        0.259259        1.0        0        
C1        C        0.615385        0.351852        1.0        0        
C2        C        0.653846        0.407408        1.0        0        
C3        C        0.615385        0.42592500000000005        1.0        0        
C4        C        0.653846        0.37037        1.0        0        
C1        C        0.615385        0.46296300000000007        1.0        0        
C2        C        0.653846        0.518519        1.0        0        
C3        C        0.615385        0.537037        1.0        0        
C4        C        0.653846        0.481481        1.0        0        
C1        C        0.615385        0.574075        1.0        0        
C2        C        0.653846        0.62963        1.0        0        
C3        C        0.615385        0.648148        1.0        0        
C4        C        0.653846        0.592592        1.0        0        
C1        C        0.692308        0.018519        1.0        0        
C2        C        0.730769        0.074075        1.0        0        
C3        C        0.692308        0.092592        1.0        0        
C4        C        0.730769        0.037037        1.0        0        
C1        C        0.692308        0.12963        1.0        0        
C2        C        0.730769        0.185185        1.0        0        
C3        C        0.692308        0.203703        1.0        0        
C4        C        0.730769        0.148148        1.0        0        
C1        C        0.692308        0.24074099999999998        1.0        0        
C2        C        0.730769        0.296297        1.0        0        
C3        C        0.692308        0.314815        1.0        0        
C4        C        0.730769        0.259259        1.0        0        
C1        C        0.692308        0.351852        1.0        0        
C2        C        0.730769        0.407408        1.0        0        
C3        C        0.692308        0.42592500000000005        1.0        0        
C4        C        0.730769        0.37037        1.0        0        
C1        C        0.692308        0.46296300000000007        1.0        0        
C2        C        0.730769        0.518519        1.0        0        
C3        C        0.692308        0.537037        1.0        0        
C4        C        0.730769        0.481481        1.0        0        
C1        C        0.692308        0.574075        1.0        0        
C2        C        0.730769        0.62963        1.0        0        
C3        C        0.692308        0.648148        1.0        0        
C4        C        0.730769        0.592592        1.0        0        
C1        C        0.769231        0.018519        1.0        0        
C2        C        0.807692        0.074075        1.0        0        
C3        C        0.769231        0.092592        1.0        0        
C4        C        0.807692        0.037037        1.0        0        
C1        C        0.769231        0.12963        1.0        0        
C2        C        0.807692        0.185185        1.0        0        
C3        C        0.769231        0.203703        1.0        0        
C4        C        0.807692        0.148148        1.0        0        
C1        C        0.769231        0.24074099999999998        1.0        0        
C2        C        0.807692        0.296297        1.0        0        
C3        C        0.769231        0.314815        1.0        0        
C4        C        0.807692        0.259259        1.0        0        
C1        C        0.769231        0.351852        1.0        0        
C2        C        0.807692        0.407408        1.0        0        
C3        C        0.769231        0.42592500000000005        1.0        0        
C4        C        0.807692        0.37037        1.0        0        
C1        C        0.769231        0.46296300000000007        1.0        0        
C2        C        0.807692        0.518519        1.0        0        
C3        C        0.769231        0.537037        1.0        0        
C4        C        0.807692        0.481481        1.0        0        
C1        C        0.769231        0.574075        1.0        0        
C2        C        0.807692        0.62963        1.0        0        
C3        C        0.769231        0.648148        1.0        0        
C4        C        0.807692        0.592592        1.0        0        
C1        C        0.846154        0.018519        1.0        0        
C2        C        0.884615        0.074075        1.0        0        
C3        C        0.846154        0.092592        1.0        0        
C4        C        0.884615        0.037037        1.0        0        
C1        C        0.846154        0.12963        1.0        0        
C2        C        0.884615        0.185185        1.0        0        
C3        C        0.846154        0.203703        1.0        0        
C4        C        0.884615        0.148148        1.0        0        
C1        C        0.846154        0.24074099999999998        1.0        0        
C2        C        0.884615        0.296297        1.0        0        
C3        C        0.846154        0.314815        1.0        0        
C4        C        0.884615        0.259259        1.0        0        
C1        C        0.846154        0.351852        1.0        0        
C2        C        0.884615        0.407408        1.0        0        
C3        C        0.846154        0.42592500000000005        1.0        0        
C4        C        0.884615        0.37037        1.0        0        
C1        C        0.846154        0.46296300000000007        1.0        0        
C2        C        0.884615        0.518519        1.0        0        
C3        C        0.846154        0.537037        1.0        0        
C4        C        0.884615        0.481481        1.0        0        
C1        C        0.846154        0.574075        1.0        0        
C2        C        0.884615        0.62963        1.0        0        
C3        C        0.846154        0.648148        1.0        0        
C4        C        0.884615        0.592592        1.0        0        
C1        C        0.923077        0.018519        1.0        0        
C2        C        0.961538        0.074075        1.0        0        
C3        C        0.923077        0.092592        1.0        0        
C4        C        0.961538        0.037037        1.0        0        
C1        C        0.923077        0.12963        1.0        0        
C2        C        0.961538        0.185185        1.0        0        
C3        C        0.923077        0.203703        1.0        0        
C4        C        0.961538        0.148148        1.0        0        
C1        C        0.923077        0.24074099999999998        1.0        0        
C2        C        0.961538        0.296297        1.0        0        
C3        C        0.923077        0.314815        1.0        0        
C4        C        0.961538        0.259259        1.0        0        
C1        C        0.923077        0.351852        1.0        0        
C2        C        0.961538        0.407408        1.0        0        
C3        C        0.923077        0.42592500000000005        1.0        0        
C4        C        0.961538        0.37037        1.0        0        
C1        C        0.923077        0.46296300000000007        1.0        0        
C2        C        0.961538        0.518519        1.0        0        
C3        C        0.923077        0.537037        1.0        0        
C4        C        0.961538        0.481481        1.0        0        
C1        C        0.923077        0.574075        1.0        0        
C2        C        0.961538        0.62963        1.0        0        
C3        C        0.923077        0.648148        1.0        0        
C4        C        0.961538        0.592592        1.0        0        
C1        C        1.0        0.018519        1.0        0        
C2        C        1.038462        0.074075        1.0        0        
C3        C        1.0        0.092592        1.0        0        
C4        C        1.038462        0.037037        1.0        0        
C1        C        1.0        0.12963        1.0        0        
C2        C        1.038462        0.185185        1.0        0        
C3        C        1.0        0.203703        1.0        0        
C4        C        1.038462        0.148148        1.0        0        
C1        C        1.0        0.24074099999999998        1.0        0        
C2        C        1.038462        0.296297        1.0        0        
C3        C        1.0        0.314815        1.0        0        
C4        C        1.038462        0.259259        1.0        0        
C1        C        1.0        0.351852        1.0        0        
C2        C        1.038462        0.407408        1.0        0        
C3        C        1.0        0.42592500000000005        1.0        0        
C4        C        1.038462        0.37037        1.0        0        
C1        C        1.0        0.46296300000000007        1.0        0        
C2        C        1.038462        0.518519        1.0        0        
C3        C        1.0        0.537037        1.0        0        
C4        C        1.038462        0.481481        1.0        0        
C1        C        1.0        0.574075        1.0        0        
C2        C        1.038462        0.62963        1.0        0        
C3        C        1.0        0.648148        1.0        0        
C4        C        1.038462        0.592592        1.0        0        
C1        C        0.0        0.685186        1.0        0        
C1        C        0.076923        0.685186        1.0        0        
C1        C        0.153846        0.685186        1.0        0        
C1        C        0.230769        0.685186        1.0        0        
C1        C        0.307692        0.685186        1.0        0        
C1        C        0.384615        0.685186        1.0        0        
C1        C        0.461538        0.685186        1.0        0        
C1        C        0.538462        0.685186        1.0        0        
C1        C        0.615385        0.685186        1.0        0        
C1        C        0.692308        0.685186        1.0        0        
C1        C        0.769231        0.685186        1.0        0        
C1        C        0.846154        0.685186        1.0        0        
C1        C        0.923077        0.685186        1.0        0        
C1        C        1.0        0.685186        1.0        0        
C2        C        0.038462        0.740741        1.0        0        
C2        C        0.115385        0.740741        1.0        0        
C2        C        0.192308        0.740741        1.0        0        
C2        C        0.269231        0.740741        1.0        0        
C2        C        0.346154        0.740741        1.0        0        
C2        C        0.423077        0.740741        1.0        0        
C2        C        0.5        0.740741        1.0        0        
C2        C        0.576923        0.740741        1.0        0        
C2        C        0.653846        0.740741        1.0        0        
C2        C        0.730769        0.740741        1.0        0        
C2        C        0.807692        0.740741        1.0        0        
C2        C        0.884615        0.740741        1.0        0        
C2        C        0.961538        0.740741        1.0        0        
C2        C        1.038462        0.740741        1.0        0        
C3        C        0.0        0.759259        1.0        0        
C3        C        0.076923        0.759259        1.0        0        
C3        C        0.153846        0.759259        1.0        0        
C3        C        0.230769        0.759259        1.0        0        
C3        C        0.307692        0.759259        1.0        0        
C3        C        0.384615        0.759259        1.0        0        
C3        C        0.461538        0.759259        1.0        0        
C3        C        0.538462        0.759259        1.0        0        
C3        C        0.615385        0.759259        1.0        0        
C3        C        0.692308        0.759259        1.0        0        
C3        C        0.769231        0.759259        1.0        0        
C3        C        0.846154        0.759259        1.0        0        
C3        C        0.923077        0.759259        1.0        0        
C3        C        1.0        0.759259        1.0        0        
C4        C        0.038462        0.703703        1.0        0        
C4        C        0.115385        0.703703        1.0        0        
C4        C        0.192308        0.703703        1.0        0        
C4        C        0.269231        0.703703        1.0        0        
C4        C        0.346154        0.703703        1.0        0        
C4        C        0.423077        0.703703        1.0        0        
C4        C        0.5        0.703703        1.0        0        
C4        C        0.576923        0.703703        1.0        0        
C4        C        0.653846        0.703703        1.0        0        
C4        C        0.730769        0.703703        1.0        0        
C4        C        0.807692        0.703703        1.0        0        
C4        C        0.884615        0.703703        1.0        0        
C4        C        0.961538        0.703703        1.0        0        
C4        C        1.038462        0.703703        1.0        0        
C1        C        0.0        0.796297        1.0        0        
C1        C        0.076923        0.796297        1.0        0        
C1        C        0.153846        0.796297        1.0        0        
C1        C        0.230769        0.796297        1.0        0        
C1        C        0.307692        0.796297        1.0        0        
C1        C        0.384615        0.796297        1.0        0        
C1        C        0.461538        0.796297        1.0        0        
C1        C        0.538462        0.796297        1.0        0        
C1        C        0.615385        0.796297        1.0        0        
C1        C        0.692308        0.796297        1.0        0        
C1        C        0.769231        0.796297        1.0        0        
C1        C        0.846154        0.796297        1.0        0        
C1        C        0.923077        0.796297        1.0        0        
C1        C        1.0        0.796297        1.0        0        
C2        C        0.038462        0.851852        1.0        0        
C2        C        0.115385        0.851852        1.0        0        
C2        C        0.192308        0.851852        1.0        0        
C2        C        0.269231        0.851852        1.0        0        
C2        C        0.346154        0.851852        1.0        0        
C2        C        0.423077        0.851852        1.0        0        
C2        C        0.5        0.851852        1.0        0        
C2        C        0.576923        0.851852        1.0        0        
C2        C        0.653846        0.851852        1.0        0        
C2        C        0.730769        0.851852        1.0        0        
C2        C        0.807692        0.851852        1.0        0        
C2        C        0.884615        0.851852        1.0        0        
C2        C        0.961538        0.851852        1.0        0        
C2        C        1.038462        0.851852        1.0        0        
C3        C        0.0        0.87037        1.0        0        
C3        C        0.076923        0.87037        1.0        0        
C3        C        0.153846        0.87037        1.0        0        
C3        C        0.230769        0.87037        1.0        0        
C3        C        0.307692        0.87037        1.0        0        
C3        C        0.384615        0.87037        1.0        0        
C3        C        0.461538        0.87037        1.0        0        
C3        C        0.538462        0.87037        1.0        0        
C3        C        0.615385        0.87037        1.0        0        
C3        C        0.692308        0.87037        1.0        0        
C3        C        0.769231        0.87037        1.0        0        
C3        C        0.846154        0.87037        1.0        0        
C3        C        0.923077        0.87037        1.0        0        
C3        C        1.0        0.87037        1.0        0        
C4        C        0.038462        0.814814        1.0        0        
C4        C        0.115385        0.814814        1.0        0        
C4        C        0.192308        0.814814        1.0        0        
C4        C        0.269231        0.814814        1.0        0        
C4        C        0.346154        0.814814        1.0        0        
C4        C        0.423077        0.814814        1.0        0        
C4        C        0.5        0.814814        1.0        0        
C4        C        0.576923        0.814814        1.0        0        
C4        C        0.653846        0.814814        1.0        0        
C4        C        0.730769        0.814814        1.0        0        
C4        C        0.807692        0.814814        1.0        0        
C4        C        0.884615        0.814814        1.0        0        
C4        C        0.961538        0.814814        1.0        0        
C4        C        1.038462        0.814814        1.0        0        
C1        C        0.0        0.907408        1.0        0        
C1        C        0.076923        0.907408        1.0        0        
C1        C        0.153846        0.907408        1.0        0        
C1        C        0.230769        0.907408        1.0        0        
C1        C        0.307692        0.907408        1.0        0        
C1        C        0.384615        0.907408        1.0        0        
C1        C        0.461538        0.907408        1.0        0        
C1        C        0.538462        0.907408        1.0        0        
C1        C        0.615385        0.907408        1.0        0        
C1        C        0.692308        0.907408        1.0        0        
C1        C        0.769231        0.907408        1.0        0        
C1        C        0.846154        0.907408        1.0        0        
C1        C        0.923077        0.907408        1.0        0        
C1        C        1.0        0.907408        1.0        0        
C2        C        0.038462        0.962963        1.0        0        
C2        C        0.115385        0.962963        1.0        0        
C2        C        0.192308        0.962963        1.0        0        
C2        C        0.269231        0.962963        1.0        0        
C2        C        0.346154        0.962963        1.0        0        
C2        C        0.423077        0.962963        1.0        0        
C2        C        0.5        0.962963        1.0        0        
C2        C        0.576923        0.962963        1.0        0        
C2        C        0.653846        0.962963        1.0        0        
C2        C        0.730769        0.962963        1.0        0        
C2        C        0.807692        0.962963        1.0        0        
C2        C        0.884615        0.962963        1.0        0        
C2        C        0.961538        0.962963        1.0        0        
C2        C        1.038462        0.962963        1.0        0        
C3        C        0.0        0.9814809999999999        1.0        0        
C3        C        0.076923        0.9814809999999999        1.0        0        
C3        C        0.153846        0.9814809999999999        1.0        0        
C3        C        0.230769        0.9814809999999999        1.0        0        
C3        C        0.307692        0.9814809999999999        1.0        0        
C3        C        0.384615        0.9814809999999999        1.0        0        
C3        C        0.461538        0.9814809999999999        1.0        0        
C3        C        0.538462        0.9814809999999999        1.0        0        
C3        C        0.615385        0.9814809999999999        1.0        0        
C3        C        0.692308        0.9814809999999999        1.0        0        
C3        C        0.769231        0.9814809999999999        1.0        0        
C3        C        0.846154        0.9814809999999999        1.0        0        
C3        C        0.923077        0.9814809999999999        1.0        0        
C3        C        1.0        0.9814809999999999        1.0        0        
C4        C        0.038462        0.925925        1.0        0        
C4        C        0.115385        0.925925        1.0        0        
C4        C        0.192308        0.925925        1.0        0        
C4        C        0.269231        0.925925        1.0        0        
C4        C        0.346154        0.925925        1.0        0        
C4        C        0.423077        0.925925        1.0        0        
C4        C        0.5        0.925925        1.0        0        
C4        C        0.576923        0.925925        1.0        0        
C4        C        0.653846        0.925925        1.0        0        
C4        C        0.730769        0.925925        1.0        0        
C4        C        0.807692        0.925925        1.0        0        
C4        C        0.884615        0.925925        1.0        0        
C4        C        0.961538        0.925925        1.0        0        
C4        C        1.038462        0.925925        1.0        0        
O_OH        O        0.076923        0.018519        0.28141868512110724        -0.64        
O_OH        O        0.076923        0.12963        0.28141868512110724        -0.64        
O_OH        O        0.076923        0.24074099999999998        0.28141868512110724        -0.64        
O_OH        O        0.076923        0.351852        0.28141868512110724        -0.64        
O_OH        O        0.076923        0.46296300000000007        0.28141868512110724        -0.64        
O_OH        O        0.076923        0.574075        0.28141868512110724        -0.64        
O_OH        O        0.230769        0.018519        0.28141868512110724        -0.64        
O_OH        O        0.230769        0.12963        0.28141868512110724        -0.64        
O_OH        O        0.230769        0.24074099999999998        0.28141868512110724        -0.64        
O_OH        O        0.230769        0.351852        0.28141868512110724        -0.64        
O_OH        O        0.230769        0.46296300000000007        0.28141868512110724        -0.64        
O_OH        O        0.230769        0.574075        0.28141868512110724        -0.64        
O_OH        O        0.846154        0.018519        0.28141868512110724        -0.64        
O_OH        O        0.846154        0.12963        0.28141868512110724        -0.64        
O_OH        O        0.846154        0.24074099999999998        0.28141868512110724        -0.64        
O_OH        O        0.846154        0.351852        0.28141868512110724        -0.64        
O_OH        O        0.846154        0.46296300000000007        0.28141868512110724        -0.64        
O_OH        O        0.846154        0.574075        0.28141868512110724        -0.64        
O_OH        O        1.0        0.018519        0.28141868512110724        -0.64        
O_OH        O        1.0        0.12963        0.28141868512110724        -0.64        
O_OH        O        1.0        0.24074099999999998        0.28141868512110724        -0.64        
O_OH        O        1.0        0.351852        0.28141868512110724        -0.64        
O_OH        O        1.0        0.46296300000000007        0.28141868512110724        -0.64        
O_OH        O        1.0        0.574075        0.28141868512110724        -0.64        
O_OH        O        0.076923        0.685186        0.28141868512110724        -0.64        
O_OH        O        0.230769        0.685186        0.28141868512110724        -0.64        
O_OH        O        0.846154        0.685186        0.28141868512110724        -0.64        
O_OH        O        1.0        0.685186        0.28141868512110724        -0.64        
O_OH        O        0.076923        0.796297        0.28141868512110724        -0.64        
O_OH        O        0.230769        0.796297        0.28141868512110724        -0.64        
O_OH        O        0.846154        0.796297        0.28141868512110724        -0.64        
O_OH        O        1.0        0.796297        0.28141868512110724        -0.64        
O_OH        O        0.076923        0.907408        0.28141868512110724        -0.64        
O_OH        O        0.230769        0.907408        0.28141868512110724        -0.64        
O_OH        O        0.846154        0.907408        0.28141868512110724        -0.64        
O_OH        O        1.0        0.907408        0.28141868512110724        -0.64        
O_OH        O        0.076923        0.018519        0.7185813148788928        -0.64        
O_OH        O        0.076923        0.12963        0.7185813148788928        -0.64        
O_OH        O        0.076923        0.24074099999999998        0.7185813148788928        -0.64        
O_OH        O        0.076923        0.351852        0.7185813148788928        -0.64        
O_OH        O        0.076923        0.46296300000000007        0.7185813148788928        -0.64        
O_OH        O        0.076923        0.574075        0.7185813148788928        -0.64        
O_OH        O        0.230769        0.018519        0.7185813148788928        -0.64        
O_OH        O        0.230769        0.12963        0.7185813148788928        -0.64        
O_OH        O        0.230769        0.24074099999999998        0.7185813148788928        -0.64        
O_OH        O        0.230769        0.351852        0.7185813148788928        -0.64        
O_OH        O        0.230769        0.46296300000000007        0.7185813148788928        -0.64        
O_OH        O        0.230769        0.574075        0.7185813148788928        -0.64        
O_OH        O        0.846154        0.018519        0.7185813148788928        -0.64        
O_OH        O        0.846154        0.12963        0.7185813148788928        -0.64        
O_OH        O        0.846154        0.24074099999999998        0.7185813148788928        -0.64        
O_OH        O        0.846154        0.351852        0.7185813148788928        -0.64        
O_OH        O        0.846154        0.46296300000000007        0.7185813148788928        -0.64        
O_OH        O        0.846154        0.574075        0.7185813148788928        -0.64        
O_OH        O        1.0        0.018519        0.7185813148788928        -0.64        
O_OH        O        1.0        0.12963        0.7185813148788928        -0.64        
O_OH        O        1.0        0.24074099999999998        0.7185813148788928        -0.64        
O_OH        O        1.0        0.351852        0.7185813148788928        -0.64        
O_OH        O        1.0        0.46296300000000007        0.7185813148788928        -0.64        
O_OH        O        1.0        0.574075        0.7185813148788928        -0.64        
O_OH        O        0.076923        0.685186        0.7185813148788928        -0.64        
O_OH        O        0.230769        0.685186        0.7185813148788928        -0.64        
O_OH        O        0.846154        0.685186        0.7185813148788928        -0.64        
O_OH        O        1.0        0.685186        0.7185813148788928        -0.64        
O_OH        O        0.076923        0.796297        0.7185813148788928        -0.64        
O_OH        O        0.230769        0.796297        0.7185813148788928        -0.64        
O_OH        O        0.846154        0.796297        0.7185813148788928        -0.64        
O_OH        O        1.0        0.796297        0.7185813148788928        -0.64        
O_OH        O        0.076923        0.907408        0.7185813148788928        -0.64        
O_OH        O        0.230769        0.907408        0.7185813148788928        -0.64        
O_OH        O        0.846154        0.907408        0.7185813148788928        -0.64        
O_OH        O        1.0        0.907408        0.7185813148788928        -0.64        
H_OH        H        0.04884146491361942        0.01970879201859944        0.29305186851211074        0.44        
H_OH        H        0.048992749564350103        0.13233392143783765        0.29305186851211074        0.44        
H_OH        H        0.07785832512810965        0.2641814711467655        0.29305186851211074        0.44        
H_OH        H        0.07314729414939432        0.3750930366216616        0.29305186851211074        0.44        
H_OH        H        0.06552397433506535        0.4844026885272857        0.29305186851211074        0.44        
H_OH        H        0.07475821557160912        0.5974588377613008        0.29305186851211074        0.44        
H_OH        H        0.21053753913044448        0.03480659829902359        0.29305186851211074        0.44        
H_OH        H        0.25610348706065217        0.13980385470263176        0.29305186851211074        0.44        
H_OH        H        0.25811309059391774        0.24620480686864946        0.29305186851211074        0.44        
H_OH        H        0.2565388402360259        0.36123432337015504        0.29305186851211074        0.44        
H_OH        H        0.21212710118370817        0.48052082803693297        0.29305186851211074        0.44        
H_OH        H        0.2523984464003982        0.5890606584976026        0.29305186851211074        0.44        
H_OH        H        0.8683162836992492        0.03295282976566492        0.29305186851211074        0.44        
H_OH        H        0.8565888570763459        0.1514085866967906        0.29305186851211074        0.44        
H_OH        H        0.8543756427248907        0.2631694395732812        0.29305186851211074        0.44        
H_OH        H        0.8228852133576154        0.36501863965348963        0.29305186851211074        0.44        
H_OH        H        0.8712491638681039        0.473541483158816        0.29305186851211074        0.44        
H_OH        H        0.8741963432428633        0.5757913839099131        0.29305186851211074        0.44        
H_OH        H        1.0180263759608215        0.036518458227064746        0.29305186851211074        0.44        
H_OH        H        0.9751964058940525        0.14067657137559092        0.29305186851211074        0.44        
H_OH        H        0.9812772955392951        0.2582389047364544        0.29305186851211074        0.44        
H_OH        H        0.9804909759979883        0.3687416658126568        0.29305186851211074        0.44        
H_OH        H        0.9925820699836402        0.48558556122524604        0.29305186851211074        0.44        
H_OH        H        0.9726825891165352        0.57963088277603        0.29305186851211074        0.44        
H_OH        H        0.08899084885498548        0.7063694918909944        0.29305186851211074        0.44        
H_OH        H        0.22629472234885104        0.7083406115824171        0.29305186851211074        0.44        
H_OH        H        0.8190031904883519        0.6912836549250573        0.29305186851211074        0.44        
H_OH        H        1.0166153189678404        0.7041066155928827        0.29305186851211074        0.44        
H_OH        H        0.10497652678297603        0.7978811386279304        0.29305186851211074        0.44        
H_OH        H        0.21829146199747987        0.8173147042000639        0.29305186851211074        0.44        
H_OH        H        0.8413739017685483        0.8194090519014845        0.29305186851211074        0.44        
H_OH        H        1.0133017124206403        0.816960048813145        0.29305186851211074        0.44        
H_OH        H        0.06289671907340832        0.9277349538909072        0.29305186851211074        0.44        
H_OH        H        0.2526130696498007        0.9221754751904474        0.29305186851211074        0.44        
H_OH        H        0.8511187848170327        0.9304929468071039        0.29305186851211074        0.44        
H_OH        H        0.9867845953100165        0.9281095434261953        0.29305186851211074        0.44        
H_OH        H        0.052130843426911995        0.029583420679993973        0.7069481314878893        0.44        
H_OH        H        0.10053186405182374        0.1423684750066463        0.7069481314878893        0.44        
H_OH        H        0.06557666644602478        0.2622001262689458        0.7069481314878893        0.44        
H_OH        H        0.10308479132876415        0.3604465479255991        0.7069481314878893        0.44        
H_OH        H        0.09392014154319776        0.481646159585176        0.7069481314878893        0.44        
H_OH        H        0.10483829790314168        0.5768842995980593        0.7069481314878893        0.44        
H_OH        H        0.24180316028115        0.040091088815671784        0.7069481314878893        0.44        
H_OH        H        0.22271249325390463        0.15210009458646012        0.7069481314878893        0.44        
H_OH        H        0.23422448085973466        0.2640166710903404        0.7069481314878893        0.44        
H_OH        H        0.20400379081278266        0.35903851827075417        0.7069481314878893        0.44        
H_OH        H        0.22310675950400696        0.48552883627680476        0.7069481314878893        0.44        
H_OH        H        0.22689523407662998        0.5973048062065323        0.7069481314878893        0.44        
H_OH        H        0.8708949699565552        0.02966285169120208        0.7069481314878893        0.44        
H_OH        H        0.8287951143654176        0.14808030132007832        0.7069481314878893        0.44        
H_OH        H        0.8733993621915105        0.24653780482587564        0.7069481314878893        0.44        
H_OH        H        0.8739204260839083        0.35554788081261096        0.7069481314878893        0.44        
H_OH        H        0.825952720988479        0.4792766417017408        0.7069481314878893        0.44        
H_OH        H        0.8629473671499093        0.5928859311501864        0.7069481314878893        0.44        
H_OH        H        0.9814475208355631        0.036142601316425396        0.7069481314878893        0.44        
H_OH        H        0.9802416009064032        0.14631675566435373        0.7069481314878893        0.44        
H_OH        H        0.9894101015250092        0.2624674562156854        0.7069481314878893        0.44        
H_OH        H        0.9839347009987951        0.37110026695053594        0.7069481314878893        0.44        
H_OH        H        1.020964649391536        0.4785921743780859        0.7069481314878893        0.44        
H_OH        H        0.9725723255869654        0.5792391090804189        0.7069481314878893        0.44        
H_OH        H        0.09975299930967414        0.6988766431667233        0.7069481314878893        0.44        
H_OH        H        0.21164350925613312        0.7023781539985738        0.7069481314878893        0.44        
H_OH        H        0.8196673039710051        0.6930577818064535        0.7069481314878893        0.44        
H_OH        H        1.0037793223270306        0.7084266276504303        0.7069481314878893        0.44        
H_OH        H        0.08239842933818144        0.8193014683599104        0.7069481314878893        0.44        
H_OH        H        0.25436206299335534        0.8090558268797048        0.7069481314878893        0.44        
H_OH        H        0.8523821203745819        0.819167867950489        0.7069481314878893        0.44        
H_OH        H        0.9924733130244142        0.8188945541511256        0.7069481314878893        0.44        
H_OH        H        0.06875852066339731        0.9298509632710584        0.7069481314878893        0.44        
H_OH        H        0.23573956534448484        0.930492081335915        0.7069481314878893        0.44        
H_OH        H        0.8201259759813913        0.9162806254101485        0.7069481314878893        0.44        
H_OH        H        1.0252673758266861        0.9176973173406798        0.7069481314878893        0.44        
