data_graphite_ortho

_audit_creation_method RASPA-1.0
_audit_creation_date 2012-2-3
_audit_author_name 'David Dubbeldam'

_cell_length_a    39.36    
_cell_length_b    38.34    
_cell_length_c    34.6    
_cell_angle_alpha 90
_cell_angle_beta  90
_cell_angle_gamma 90
_cell_volume      52213.56      

_symmetry_cell_setting          triclinic
_symmetry_space_group_name_Hall 'P 1'
_symmetry_space_group_name_H-M  'P 1'
_symmetry_Int_Tables_number     1

_symmetry_equiv_pos_as_xyz 'x,y,z'

loop_
_atom_site_label
_atom_site_type_symbol
_atom_site_fract_x
_atom_site_fract_y
_atom_site_fract_z
_atom_site_charge
C_FG        C        0.0        0.018519        0.06710228323699421        0.08        
C2        C        0.03125        0.074075        0.06710228323699421        0        
C3        C        0.0        0.092592        0.06710228323699421        0        
C4        C        0.03125        0.037037        0.06710228323699421        0        
C1        C        0.0        0.12963        0.06710228323699421        0        
C2        C        0.03125        0.185185        0.06710228323699421        0        
C_FG        C        0.0        0.203703        0.06710228323699421        0.08        
C4        C        0.03125        0.148148        0.06710228323699421        0        
C1        C        0.0        0.24074099999999998        0.06710228323699421        0        
C2        C        0.03125        0.296297        0.06710228323699421        0        
C3        C        0.0        0.314815        0.06710228323699421        0        
C4        C        0.03125        0.259259        0.06710228323699421        0        
C_FG        C        0.0        0.351852        0.06710228323699421        0.08        
C2        C        0.03125        0.407408        0.06710228323699421        0        
C3        C        0.0        0.42592500000000005        0.06710228323699421        0        
C4        C        0.03125        0.37037        0.06710228323699421        0        
C1        C        0.0        0.46296300000000007        0.06710228323699421        0        
C2        C        0.03125        0.518519        0.06710228323699421        0        
C_FG        C        0.0        0.537037        0.06710228323699421        0.08        
C4        C        0.03125        0.481481        0.06710228323699421        0        
C1        C        0.0        0.574075        0.06710228323699421        0        
C2        C        0.03125        0.62963        0.06710228323699421        0        
C3        C        0.0        0.648148        0.06710228323699421        0        
C4        C        0.03125        0.592592        0.06710228323699421        0        
C1        C        0.0625        0.018519        0.06710228323699421        0        
C2        C        0.09375        0.074075        0.06710228323699421        0        
C3        C        0.0625        0.092592        0.06710228323699421        0        
C4        C        0.09375        0.037037        0.06710228323699421        0        
C1        C        0.0625        0.12963        0.06710228323699421        0        
C2        C        0.09375        0.185185        0.06710228323699421        0        
C3        C        0.0625        0.203703        0.06710228323699421        0        
C4        C        0.09375        0.148148        0.06710228323699421        0        
C1        C        0.0625        0.24074099999999998        0.06710228323699421        0        
C2        C        0.09375        0.296297        0.06710228323699421        0        
C3        C        0.0625        0.314815        0.06710228323699421        0        
C4        C        0.09375        0.259259        0.06710228323699421        0        
C1        C        0.0625        0.351852        0.06710228323699421        0        
C2        C        0.09375        0.407408        0.06710228323699421        0        
C3        C        0.0625        0.42592500000000005        0.06710228323699421        0        
C4        C        0.09375        0.37037        0.06710228323699421        0        
C1        C        0.0625        0.46296300000000007        0.06710228323699421        0        
C2        C        0.09375        0.518519        0.06710228323699421        0        
C3        C        0.0625        0.537037        0.06710228323699421        0        
C4        C        0.09375        0.481481        0.06710228323699421        0        
C1        C        0.0625        0.574075        0.06710228323699421        0        
C2        C        0.09375        0.62963        0.06710228323699421        0        
C3        C        0.0625        0.648148        0.06710228323699421        0        
C4        C        0.09375        0.592592        0.06710228323699421        0        
C1        C        0.125        0.018519        0.06710228323699421        0        
C2        C        0.15625        0.074075        0.06710228323699421        0        
C3        C        0.125        0.092592        0.06710228323699421        0        
C4        C        0.15625        0.037037        0.06710228323699421        0        
C1        C        0.125        0.12963        0.06710228323699421        0        
C2        C        0.15625        0.185185        0.06710228323699421        0        
C3        C        0.125        0.203703        0.06710228323699421        0        
C4        C        0.15625        0.148148        0.06710228323699421        0        
C1        C        0.125        0.24074099999999998        0.06710228323699421        0        
C2        C        0.15625        0.296297        0.06710228323699421        0        
C3        C        0.125        0.314815        0.06710228323699421        0        
C4        C        0.15625        0.259259        0.06710228323699421        0        
C1        C        0.125        0.351852        0.06710228323699421        0        
C2        C        0.15625        0.407408        0.06710228323699421        0        
C3        C        0.125        0.42592500000000005        0.06710228323699421        0        
C4        C        0.15625        0.37037        0.06710228323699421        0        
C1        C        0.125        0.46296300000000007        0.06710228323699421        0        
C2        C        0.15625        0.518519        0.06710228323699421        0        
C3        C        0.125        0.537037        0.06710228323699421        0        
C4        C        0.15625        0.481481        0.06710228323699421        0        
C1        C        0.125        0.574075        0.06710228323699421        0        
C2        C        0.15625        0.62963        0.06710228323699421        0        
C3        C        0.125        0.648148        0.06710228323699421        0        
C4        C        0.15625        0.592592        0.06710228323699421        0        
C1        C        0.1875        0.018519        0.06710228323699421        0        
C2        C        0.21875        0.074075        0.06710228323699421        0        
C3        C        0.1875        0.092592        0.06710228323699421        0        
C4        C        0.21875        0.037037        0.06710228323699421        0        
C1        C        0.1875        0.12963        0.06710228323699421        0        
C2        C        0.21875        0.185185        0.06710228323699421        0        
C3        C        0.1875        0.203703        0.06710228323699421        0        
C4        C        0.21875        0.148148        0.06710228323699421        0        
C1        C        0.1875        0.24074099999999998        0.06710228323699421        0        
C2        C        0.21875        0.296297        0.06710228323699421        0        
C3        C        0.1875        0.314815        0.06710228323699421        0        
C4        C        0.21875        0.259259        0.06710228323699421        0        
C1        C        0.1875        0.351852        0.06710228323699421        0        
C2        C        0.21875        0.407408        0.06710228323699421        0        
C3        C        0.1875        0.42592500000000005        0.06710228323699421        0        
C4        C        0.21875        0.37037        0.06710228323699421        0        
C1        C        0.1875        0.46296300000000007        0.06710228323699421        0        
C2        C        0.21875        0.518519        0.06710228323699421        0        
C3        C        0.1875        0.537037        0.06710228323699421        0        
C4        C        0.21875        0.481481        0.06710228323699421        0        
C1        C        0.1875        0.574075        0.06710228323699421        0        
C2        C        0.21875        0.62963        0.06710228323699421        0        
C3        C        0.1875        0.648148        0.06710228323699421        0        
C4        C        0.21875        0.592592        0.06710228323699421        0        
C_FG        C        0.25        0.018519        0.06710228323699421        0.08        
C2        C        0.28125        0.074075        0.06710228323699421        0        
C3        C        0.25        0.092592        0.06710228323699421        0        
C4        C        0.28125        0.037037        0.06710228323699421        0        
C1        C        0.25        0.12963        0.06710228323699421        0        
C2        C        0.28125        0.185185        0.06710228323699421        0        
C_FG        C        0.25        0.203703        0.06710228323699421        0.08        
C4        C        0.28125        0.148148        0.06710228323699421        0        
C1        C        0.25        0.24074099999999998        0.06710228323699421        0        
C2        C        0.28125        0.296297        0.06710228323699421        0        
C3        C        0.25        0.314815        0.06710228323699421        0        
C4        C        0.28125        0.259259        0.06710228323699421        0        
C_FG        C        0.25        0.351852        0.06710228323699421        0.08        
C2        C        0.28125        0.407408        0.06710228323699421        0        
C3        C        0.25        0.42592500000000005        0.06710228323699421        0        
C4        C        0.28125        0.37037        0.06710228323699421        0        
C1        C        0.25        0.46296300000000007        0.06710228323699421        0        
C2        C        0.28125        0.518519        0.06710228323699421        0        
C_FG        C        0.25        0.537037        0.06710228323699421        0.08        
C4        C        0.28125        0.481481        0.06710228323699421        0        
C1        C        0.25        0.574075        0.06710228323699421        0        
C2        C        0.28125        0.62963        0.06710228323699421        0        
C3        C        0.25        0.648148        0.06710228323699421        0        
C4        C        0.28125        0.592592        0.06710228323699421        0        
C1        C        0.3125        0.018519        0.06710228323699421        0        
C2        C        0.34375        0.074075        0.06710228323699421        0        
C3        C        0.3125        0.092592        0.06710228323699421        0        
C4        C        0.34375        0.037037        0.06710228323699421        0        
C1        C        0.3125        0.12963        0.06710228323699421        0        
C2        C        0.34375        0.185185        0.06710228323699421        0        
C3        C        0.3125        0.203703        0.06710228323699421        0        
C4        C        0.34375        0.148148        0.06710228323699421        0        
C1        C        0.3125        0.24074099999999998        0.06710228323699421        0        
C2        C        0.34375        0.296297        0.06710228323699421        0        
C3        C        0.3125        0.314815        0.06710228323699421        0        
C4        C        0.34375        0.259259        0.06710228323699421        0        
C1        C        0.3125        0.351852        0.06710228323699421        0        
C2        C        0.34375        0.407408        0.06710228323699421        0        
C3        C        0.3125        0.42592500000000005        0.06710228323699421        0        
C4        C        0.34375        0.37037        0.06710228323699421        0        
C1        C        0.3125        0.46296300000000007        0.06710228323699421        0        
C2        C        0.34375        0.518519        0.06710228323699421        0        
C3        C        0.3125        0.537037        0.06710228323699421        0        
C4        C        0.34375        0.481481        0.06710228323699421        0        
C1        C        0.3125        0.574075        0.06710228323699421        0        
C2        C        0.34375        0.62963        0.06710228323699421        0        
C3        C        0.3125        0.648148        0.06710228323699421        0        
C4        C        0.34375        0.592592        0.06710228323699421        0        
C1        C        0.375        0.018519        0.06710228323699421        0        
C2        C        0.40625        0.074075        0.06710228323699421        0        
C3        C        0.375        0.092592        0.06710228323699421        0        
C4        C        0.40625        0.037037        0.06710228323699421        0        
C1        C        0.375        0.12963        0.06710228323699421        0        
C2        C        0.40625        0.185185        0.06710228323699421        0        
C3        C        0.375        0.203703        0.06710228323699421        0        
C4        C        0.40625        0.148148        0.06710228323699421        0        
C1        C        0.375        0.24074099999999998        0.06710228323699421        0        
C2        C        0.40625        0.296297        0.06710228323699421        0        
C3        C        0.375        0.314815        0.06710228323699421        0        
C4        C        0.40625        0.259259        0.06710228323699421        0        
C1        C        0.375        0.351852        0.06710228323699421        0        
C2        C        0.40625        0.407408        0.06710228323699421        0        
C3        C        0.375        0.42592500000000005        0.06710228323699421        0        
C4        C        0.40625        0.37037        0.06710228323699421        0        
C1        C        0.375        0.46296300000000007        0.06710228323699421        0        
C2        C        0.40625        0.518519        0.06710228323699421        0        
C3        C        0.375        0.537037        0.06710228323699421        0        
C4        C        0.40625        0.481481        0.06710228323699421        0        
C1        C        0.375        0.574075        0.06710228323699421        0        
C2        C        0.40625        0.62963        0.06710228323699421        0        
C3        C        0.375        0.648148        0.06710228323699421        0        
C4        C        0.40625        0.592592        0.06710228323699421        0        
C1        C        0.4375        0.018519        0.06710228323699421        0        
C2        C        0.46875        0.074075        0.06710228323699421        0        
C3        C        0.4375        0.092592        0.06710228323699421        0        
C4        C        0.46875        0.037037        0.06710228323699421        0        
C1        C        0.4375        0.12963        0.06710228323699421        0        
C2        C        0.46875        0.185185        0.06710228323699421        0        
C3        C        0.4375        0.203703        0.06710228323699421        0        
C4        C        0.46875        0.148148        0.06710228323699421        0        
C1        C        0.4375        0.24074099999999998        0.06710228323699421        0        
C2        C        0.46875        0.296297        0.06710228323699421        0        
C3        C        0.4375        0.314815        0.06710228323699421        0        
C4        C        0.46875        0.259259        0.06710228323699421        0        
C1        C        0.4375        0.351852        0.06710228323699421        0        
C2        C        0.46875        0.407408        0.06710228323699421        0        
C3        C        0.4375        0.42592500000000005        0.06710228323699421        0        
C4        C        0.46875        0.37037        0.06710228323699421        0        
C1        C        0.4375        0.46296300000000007        0.06710228323699421        0        
C2        C        0.46875        0.518519        0.06710228323699421        0        
C3        C        0.4375        0.537037        0.06710228323699421        0        
C4        C        0.46875        0.481481        0.06710228323699421        0        
C1        C        0.4375        0.574075        0.06710228323699421        0        
C2        C        0.46875        0.62963        0.06710228323699421        0        
C3        C        0.4375        0.648148        0.06710228323699421        0        
C4        C        0.46875        0.592592        0.06710228323699421        0        
C_FG        C        0.5        0.018519        0.06710228323699421        0.08        
C2        C        0.53125        0.074075        0.06710228323699421        0        
C3        C        0.5        0.092592        0.06710228323699421        0        
C4        C        0.53125        0.037037        0.06710228323699421        0        
C1        C        0.5        0.12963        0.06710228323699421        0        
C2        C        0.53125        0.185185        0.06710228323699421        0        
C_FG        C        0.5        0.203703        0.06710228323699421        0.08        
C4        C        0.53125        0.148148        0.06710228323699421        0        
C1        C        0.5        0.24074099999999998        0.06710228323699421        0        
C2        C        0.53125        0.296297        0.06710228323699421        0        
C3        C        0.5        0.314815        0.06710228323699421        0        
C4        C        0.53125        0.259259        0.06710228323699421        0        
C_FG        C        0.5        0.351852        0.06710228323699421        0.08        
C2        C        0.53125        0.407408        0.06710228323699421        0        
C3        C        0.5        0.42592500000000005        0.06710228323699421        0        
C4        C        0.53125        0.37037        0.06710228323699421        0        
C1        C        0.5        0.46296300000000007        0.06710228323699421        0        
C2        C        0.53125        0.518519        0.06710228323699421        0        
C_FG        C        0.5        0.537037        0.06710228323699421        0.08        
C4        C        0.53125        0.481481        0.06710228323699421        0        
C1        C        0.5        0.574075        0.06710228323699421        0        
C2        C        0.53125        0.62963        0.06710228323699421        0        
C3        C        0.5        0.648148        0.06710228323699421        0        
C4        C        0.53125        0.592592        0.06710228323699421        0        
C1        C        0.5625        0.018519        0.06710228323699421        0        
C2        C        0.59375        0.074075        0.06710228323699421        0        
C3        C        0.5625        0.092592        0.06710228323699421        0        
C4        C        0.59375        0.037037        0.06710228323699421        0        
C1        C        0.5625        0.12963        0.06710228323699421        0        
C2        C        0.59375        0.185185        0.06710228323699421        0        
C3        C        0.5625        0.203703        0.06710228323699421        0        
C4        C        0.59375        0.148148        0.06710228323699421        0        
C1        C        0.5625        0.24074099999999998        0.06710228323699421        0        
C2        C        0.59375        0.296297        0.06710228323699421        0        
C3        C        0.5625        0.314815        0.06710228323699421        0        
C4        C        0.59375        0.259259        0.06710228323699421        0        
C1        C        0.5625        0.351852        0.06710228323699421        0        
C2        C        0.59375        0.407408        0.06710228323699421        0        
C3        C        0.5625        0.42592500000000005        0.06710228323699421        0        
C4        C        0.59375        0.37037        0.06710228323699421        0        
C1        C        0.5625        0.46296300000000007        0.06710228323699421        0        
C2        C        0.59375        0.518519        0.06710228323699421        0        
C3        C        0.5625        0.537037        0.06710228323699421        0        
C4        C        0.59375        0.481481        0.06710228323699421        0        
C1        C        0.5625        0.574075        0.06710228323699421        0        
C2        C        0.59375        0.62963        0.06710228323699421        0        
C3        C        0.5625        0.648148        0.06710228323699421        0        
C4        C        0.59375        0.592592        0.06710228323699421        0        
C1        C        0.625        0.018519        0.06710228323699421        0        
C2        C        0.65625        0.074075        0.06710228323699421        0        
C3        C        0.625        0.092592        0.06710228323699421        0        
C4        C        0.65625        0.037037        0.06710228323699421        0        
C1        C        0.625        0.12963        0.06710228323699421        0        
C2        C        0.65625        0.185185        0.06710228323699421        0        
C3        C        0.625        0.203703        0.06710228323699421        0        
C4        C        0.65625        0.148148        0.06710228323699421        0        
C1        C        0.625        0.24074099999999998        0.06710228323699421        0        
C2        C        0.65625        0.296297        0.06710228323699421        0        
C3        C        0.625        0.314815        0.06710228323699421        0        
C4        C        0.65625        0.259259        0.06710228323699421        0        
C1        C        0.625        0.351852        0.06710228323699421        0        
C2        C        0.65625        0.407408        0.06710228323699421        0        
C3        C        0.625        0.42592500000000005        0.06710228323699421        0        
C4        C        0.65625        0.37037        0.06710228323699421        0        
C1        C        0.625        0.46296300000000007        0.06710228323699421        0        
C2        C        0.65625        0.518519        0.06710228323699421        0        
C3        C        0.625        0.537037        0.06710228323699421        0        
C4        C        0.65625        0.481481        0.06710228323699421        0        
C1        C        0.625        0.574075        0.06710228323699421        0        
C2        C        0.65625        0.62963        0.06710228323699421        0        
C3        C        0.625        0.648148        0.06710228323699421        0        
C4        C        0.65625        0.592592        0.06710228323699421        0        
C1        C        0.6875        0.018519        0.06710228323699421        0        
C2        C        0.71875        0.074075        0.06710228323699421        0        
C3        C        0.6875        0.092592        0.06710228323699421        0        
C4        C        0.71875        0.037037        0.06710228323699421        0        
C1        C        0.6875        0.12963        0.06710228323699421        0        
C2        C        0.71875        0.185185        0.06710228323699421        0        
C3        C        0.6875        0.203703        0.06710228323699421        0        
C4        C        0.71875        0.148148        0.06710228323699421        0        
C1        C        0.6875        0.24074099999999998        0.06710228323699421        0        
C2        C        0.71875        0.296297        0.06710228323699421        0        
C3        C        0.6875        0.314815        0.06710228323699421        0        
C4        C        0.71875        0.259259        0.06710228323699421        0        
C1        C        0.6875        0.351852        0.06710228323699421        0        
C2        C        0.71875        0.407408        0.06710228323699421        0        
C3        C        0.6875        0.42592500000000005        0.06710228323699421        0        
C4        C        0.71875        0.37037        0.06710228323699421        0        
C1        C        0.6875        0.46296300000000007        0.06710228323699421        0        
C2        C        0.71875        0.518519        0.06710228323699421        0        
C3        C        0.6875        0.537037        0.06710228323699421        0        
C4        C        0.71875        0.481481        0.06710228323699421        0        
C1        C        0.6875        0.574075        0.06710228323699421        0        
C2        C        0.71875        0.62963        0.06710228323699421        0        
C3        C        0.6875        0.648148        0.06710228323699421        0        
C4        C        0.71875        0.592592        0.06710228323699421        0        
C_FG        C        0.75        0.018519        0.06710228323699421        0.08        
C2        C        0.78125        0.074075        0.06710228323699421        0        
C3        C        0.75        0.092592        0.06710228323699421        0        
C4        C        0.78125        0.037037        0.06710228323699421        0        
C1        C        0.75        0.12963        0.06710228323699421        0        
C2        C        0.78125        0.185185        0.06710228323699421        0        
C_FG        C        0.75        0.203703        0.06710228323699421        0.08        
C4        C        0.78125        0.148148        0.06710228323699421        0        
C1        C        0.75        0.24074099999999998        0.06710228323699421        0        
C2        C        0.78125        0.296297        0.06710228323699421        0        
C3        C        0.75        0.314815        0.06710228323699421        0        
C4        C        0.78125        0.259259        0.06710228323699421        0        
C_FG        C        0.75        0.351852        0.06710228323699421        0.08        
C2        C        0.78125        0.407408        0.06710228323699421        0        
C3        C        0.75        0.42592500000000005        0.06710228323699421        0        
C4        C        0.78125        0.37037        0.06710228323699421        0        
C1        C        0.75        0.46296300000000007        0.06710228323699421        0        
C2        C        0.78125        0.518519        0.06710228323699421        0        
C_FG        C        0.75        0.537037        0.06710228323699421        0.08        
C4        C        0.78125        0.481481        0.06710228323699421        0        
C1        C        0.75        0.574075        0.06710228323699421        0        
C2        C        0.78125        0.62963        0.06710228323699421        0        
C3        C        0.75        0.648148        0.06710228323699421        0        
C4        C        0.78125        0.592592        0.06710228323699421        0        
C1        C        0.8125        0.018519        0.06710228323699421        0        
C2        C        0.84375        0.074075        0.06710228323699421        0        
C3        C        0.8125        0.092592        0.06710228323699421        0        
C4        C        0.84375        0.037037        0.06710228323699421        0        
C1        C        0.8125        0.12963        0.06710228323699421        0        
C2        C        0.84375        0.185185        0.06710228323699421        0        
C3        C        0.8125        0.203703        0.06710228323699421        0        
C4        C        0.84375        0.148148        0.06710228323699421        0        
C1        C        0.8125        0.24074099999999998        0.06710228323699421        0        
C2        C        0.84375        0.296297        0.06710228323699421        0        
C3        C        0.8125        0.314815        0.06710228323699421        0        
C4        C        0.84375        0.259259        0.06710228323699421        0        
C1        C        0.8125        0.351852        0.06710228323699421        0        
C2        C        0.84375        0.407408        0.06710228323699421        0        
C3        C        0.8125        0.42592500000000005        0.06710228323699421        0        
C4        C        0.84375        0.37037        0.06710228323699421        0        
C1        C        0.8125        0.46296300000000007        0.06710228323699421        0        
C2        C        0.84375        0.518519        0.06710228323699421        0        
C3        C        0.8125        0.537037        0.06710228323699421        0        
C4        C        0.84375        0.481481        0.06710228323699421        0        
C1        C        0.8125        0.574075        0.06710228323699421        0        
C2        C        0.84375        0.62963        0.06710228323699421        0        
C3        C        0.8125        0.648148        0.06710228323699421        0        
C4        C        0.84375        0.592592        0.06710228323699421        0        
C1        C        0.875        0.018519        0.06710228323699421        0        
C2        C        0.9062500000000001        0.074075        0.06710228323699421        0        
C3        C        0.875        0.092592        0.06710228323699421        0        
C4        C        0.9062500000000001        0.037037        0.06710228323699421        0        
C1        C        0.875        0.12963        0.06710228323699421        0        
C2        C        0.9062500000000001        0.185185        0.06710228323699421        0        
C3        C        0.875        0.203703        0.06710228323699421        0        
C4        C        0.9062500000000001        0.148148        0.06710228323699421        0        
C1        C        0.875        0.24074099999999998        0.06710228323699421        0        
C2        C        0.9062500000000001        0.296297        0.06710228323699421        0        
C3        C        0.875        0.314815        0.06710228323699421        0        
C4        C        0.9062500000000001        0.259259        0.06710228323699421        0        
C1        C        0.875        0.351852        0.06710228323699421        0        
C2        C        0.9062500000000001        0.407408        0.06710228323699421        0        
C3        C        0.875        0.42592500000000005        0.06710228323699421        0        
C4        C        0.9062500000000001        0.37037        0.06710228323699421        0        
C1        C        0.875        0.46296300000000007        0.06710228323699421        0        
C2        C        0.9062500000000001        0.518519        0.06710228323699421        0        
C3        C        0.875        0.537037        0.06710228323699421        0        
C4        C        0.9062500000000001        0.481481        0.06710228323699421        0        
C1        C        0.875        0.574075        0.06710228323699421        0        
C2        C        0.9062500000000001        0.62963        0.06710228323699421        0        
C3        C        0.875        0.648148        0.06710228323699421        0        
C4        C        0.9062500000000001        0.592592        0.06710228323699421        0        
C1        C        0.9375        0.018519        0.06710228323699421        0        
C2        C        0.9687500000000001        0.074075        0.06710228323699421        0        
C3        C        0.9375        0.092592        0.06710228323699421        0        
C4        C        0.9687500000000001        0.037037        0.06710228323699421        0        
C1        C        0.9375        0.12963        0.06710228323699421        0        
C2        C        0.9687500000000001        0.185185        0.06710228323699421        0        
C3        C        0.9375        0.203703        0.06710228323699421        0        
C4        C        0.9687500000000001        0.148148        0.06710228323699421        0        
C1        C        0.9375        0.24074099999999998        0.06710228323699421        0        
C2        C        0.9687500000000001        0.296297        0.06710228323699421        0        
C3        C        0.9375        0.314815        0.06710228323699421        0        
C4        C        0.9687500000000001        0.259259        0.06710228323699421        0        
C1        C        0.9375        0.351852        0.06710228323699421        0        
C2        C        0.9687500000000001        0.407408        0.06710228323699421        0        
C3        C        0.9375        0.42592500000000005        0.06710228323699421        0        
C4        C        0.9687500000000001        0.37037        0.06710228323699421        0        
C1        C        0.9375        0.46296300000000007        0.06710228323699421        0        
C2        C        0.9687500000000001        0.518519        0.06710228323699421        0        
C3        C        0.9375        0.537037        0.06710228323699421        0        
C4        C        0.9687500000000001        0.481481        0.06710228323699421        0        
C1        C        0.9375        0.574075        0.06710228323699421        0        
C2        C        0.9687500000000001        0.62963        0.06710228323699421        0        
C3        C        0.9375        0.648148        0.06710228323699421        0        
C4        C        0.9687500000000001        0.592592        0.06710228323699421        0        
C_FG        C        0.0        0.685186        0.06710228323699421        0.08        
C1        C        0.0625        0.685186        0.06710228323699421        0        
C1        C        0.125        0.685186        0.06710228323699421        0        
C1        C        0.1875        0.685186        0.06710228323699421        0        
C_FG        C        0.25        0.685186        0.06710228323699421        0.08        
C1        C        0.3125        0.685186        0.06710228323699421        0        
C1        C        0.375        0.685186        0.06710228323699421        0        
C1        C        0.4375        0.685186        0.06710228323699421        0        
C_FG        C        0.5        0.685186        0.06710228323699421        0.08        
C1        C        0.5625        0.685186        0.06710228323699421        0        
C1        C        0.625        0.685186        0.06710228323699421        0        
C1        C        0.6875        0.685186        0.06710228323699421        0        
C_FG        C        0.75        0.685186        0.06710228323699421        0.08        
C1        C        0.8125        0.685186        0.06710228323699421        0        
C1        C        0.875        0.685186        0.06710228323699421        0        
C1        C        0.9375        0.685186        0.06710228323699421        0        
C2        C        0.03125        0.740741        0.06710228323699421        0        
C2        C        0.09375        0.740741        0.06710228323699421        0        
C2        C        0.15625        0.740741        0.06710228323699421        0        
C2        C        0.21875        0.740741        0.06710228323699421        0        
C2        C        0.28125        0.740741        0.06710228323699421        0        
C2        C        0.34375        0.740741        0.06710228323699421        0        
C2        C        0.40625        0.740741        0.06710228323699421        0        
C2        C        0.46875        0.740741        0.06710228323699421        0        
C2        C        0.53125        0.740741        0.06710228323699421        0        
C2        C        0.59375        0.740741        0.06710228323699421        0        
C2        C        0.65625        0.740741        0.06710228323699421        0        
C2        C        0.71875        0.740741        0.06710228323699421        0        
C2        C        0.78125        0.740741        0.06710228323699421        0        
C2        C        0.84375        0.740741        0.06710228323699421        0        
C2        C        0.9062500000000001        0.740741        0.06710228323699421        0        
C2        C        0.9687500000000001        0.740741        0.06710228323699421        0        
C3        C        0.0        0.759259        0.06710228323699421        0        
C3        C        0.0625        0.759259        0.06710228323699421        0        
C3        C        0.125        0.759259        0.06710228323699421        0        
C3        C        0.1875        0.759259        0.06710228323699421        0        
C3        C        0.25        0.759259        0.06710228323699421        0        
C3        C        0.3125        0.759259        0.06710228323699421        0        
C3        C        0.375        0.759259        0.06710228323699421        0        
C3        C        0.4375        0.759259        0.06710228323699421        0        
C3        C        0.5        0.759259        0.06710228323699421        0        
C3        C        0.5625        0.759259        0.06710228323699421        0        
C3        C        0.625        0.759259        0.06710228323699421        0        
C3        C        0.6875        0.759259        0.06710228323699421        0        
C3        C        0.75        0.759259        0.06710228323699421        0        
C3        C        0.8125        0.759259        0.06710228323699421        0        
C3        C        0.875        0.759259        0.06710228323699421        0        
C3        C        0.9375        0.759259        0.06710228323699421        0        
C4        C        0.03125        0.703703        0.06710228323699421        0        
C4        C        0.09375        0.703703        0.06710228323699421        0        
C4        C        0.15625        0.703703        0.06710228323699421        0        
C4        C        0.21875        0.703703        0.06710228323699421        0        
C4        C        0.28125        0.703703        0.06710228323699421        0        
C4        C        0.34375        0.703703        0.06710228323699421        0        
C4        C        0.40625        0.703703        0.06710228323699421        0        
C4        C        0.46875        0.703703        0.06710228323699421        0        
C4        C        0.53125        0.703703        0.06710228323699421        0        
C4        C        0.59375        0.703703        0.06710228323699421        0        
C4        C        0.65625        0.703703        0.06710228323699421        0        
C4        C        0.71875        0.703703        0.06710228323699421        0        
C4        C        0.78125        0.703703        0.06710228323699421        0        
C4        C        0.84375        0.703703        0.06710228323699421        0        
C4        C        0.9062500000000001        0.703703        0.06710228323699421        0        
C4        C        0.9687500000000001        0.703703        0.06710228323699421        0        
C1        C        0.0        0.796297        0.06710228323699421        0        
C1        C        0.0625        0.796297        0.06710228323699421        0        
C1        C        0.125        0.796297        0.06710228323699421        0        
C1        C        0.1875        0.796297        0.06710228323699421        0        
C1        C        0.25        0.796297        0.06710228323699421        0        
C1        C        0.3125        0.796297        0.06710228323699421        0        
C1        C        0.375        0.796297        0.06710228323699421        0        
C1        C        0.4375        0.796297        0.06710228323699421        0        
C1        C        0.5        0.796297        0.06710228323699421        0        
C1        C        0.5625        0.796297        0.06710228323699421        0        
C1        C        0.625        0.796297        0.06710228323699421        0        
C1        C        0.6875        0.796297        0.06710228323699421        0        
C1        C        0.75        0.796297        0.06710228323699421        0        
C1        C        0.8125        0.796297        0.06710228323699421        0        
C1        C        0.875        0.796297        0.06710228323699421        0        
C1        C        0.9375        0.796297        0.06710228323699421        0        
C2        C        0.03125        0.851852        0.06710228323699421        0        
C2        C        0.09375        0.851852        0.06710228323699421        0        
C2        C        0.15625        0.851852        0.06710228323699421        0        
C2        C        0.21875        0.851852        0.06710228323699421        0        
C2        C        0.28125        0.851852        0.06710228323699421        0        
C2        C        0.34375        0.851852        0.06710228323699421        0        
C2        C        0.40625        0.851852        0.06710228323699421        0        
C2        C        0.46875        0.851852        0.06710228323699421        0        
C2        C        0.53125        0.851852        0.06710228323699421        0        
C2        C        0.59375        0.851852        0.06710228323699421        0        
C2        C        0.65625        0.851852        0.06710228323699421        0        
C2        C        0.71875        0.851852        0.06710228323699421        0        
C2        C        0.78125        0.851852        0.06710228323699421        0        
C2        C        0.84375        0.851852        0.06710228323699421        0        
C2        C        0.9062500000000001        0.851852        0.06710228323699421        0        
C2        C        0.9687500000000001        0.851852        0.06710228323699421        0        
C_FG        C        0.0        0.87037        0.06710228323699421        0.08        
C3        C        0.0625        0.87037        0.06710228323699421        0        
C3        C        0.125        0.87037        0.06710228323699421        0        
C3        C        0.1875        0.87037        0.06710228323699421        0        
C_FG        C        0.25        0.87037        0.06710228323699421        0.08        
C3        C        0.3125        0.87037        0.06710228323699421        0        
C3        C        0.375        0.87037        0.06710228323699421        0        
C3        C        0.4375        0.87037        0.06710228323699421        0        
C_FG        C        0.5        0.87037        0.06710228323699421        0.08        
C3        C        0.5625        0.87037        0.06710228323699421        0        
C3        C        0.625        0.87037        0.06710228323699421        0        
C3        C        0.6875        0.87037        0.06710228323699421        0        
C_FG        C        0.75        0.87037        0.06710228323699421        0.08        
C3        C        0.8125        0.87037        0.06710228323699421        0        
C3        C        0.875        0.87037        0.06710228323699421        0        
C3        C        0.9375        0.87037        0.06710228323699421        0        
C4        C        0.03125        0.814814        0.06710228323699421        0        
C4        C        0.09375        0.814814        0.06710228323699421        0        
C4        C        0.15625        0.814814        0.06710228323699421        0        
C4        C        0.21875        0.814814        0.06710228323699421        0        
C4        C        0.28125        0.814814        0.06710228323699421        0        
C4        C        0.34375        0.814814        0.06710228323699421        0        
C4        C        0.40625        0.814814        0.06710228323699421        0        
C4        C        0.46875        0.814814        0.06710228323699421        0        
C4        C        0.53125        0.814814        0.06710228323699421        0        
C4        C        0.59375        0.814814        0.06710228323699421        0        
C4        C        0.65625        0.814814        0.06710228323699421        0        
C4        C        0.71875        0.814814        0.06710228323699421        0        
C4        C        0.78125        0.814814        0.06710228323699421        0        
C4        C        0.84375        0.814814        0.06710228323699421        0        
C4        C        0.9062500000000001        0.814814        0.06710228323699421        0        
C4        C        0.9687500000000001        0.814814        0.06710228323699421        0        
C1        C        0.0        0.907408        0.06710228323699421        0        
C1        C        0.0625        0.907408        0.06710228323699421        0        
C1        C        0.125        0.907408        0.06710228323699421        0        
C1        C        0.1875        0.907408        0.06710228323699421        0        
C1        C        0.25        0.907408        0.06710228323699421        0        
C1        C        0.3125        0.907408        0.06710228323699421        0        
C1        C        0.375        0.907408        0.06710228323699421        0        
C1        C        0.4375        0.907408        0.06710228323699421        0        
C1        C        0.5        0.907408        0.06710228323699421        0        
C1        C        0.5625        0.907408        0.06710228323699421        0        
C1        C        0.625        0.907408        0.06710228323699421        0        
C1        C        0.6875        0.907408        0.06710228323699421        0        
C1        C        0.75        0.907408        0.06710228323699421        0        
C1        C        0.8125        0.907408        0.06710228323699421        0        
C1        C        0.875        0.907408        0.06710228323699421        0        
C1        C        0.9375        0.907408        0.06710228323699421        0        
C2        C        0.03125        0.962963        0.06710228323699421        0        
C2        C        0.09375        0.962963        0.06710228323699421        0        
C2        C        0.15625        0.962963        0.06710228323699421        0        
C2        C        0.21875        0.962963        0.06710228323699421        0        
C2        C        0.28125        0.962963        0.06710228323699421        0        
C2        C        0.34375        0.962963        0.06710228323699421        0        
C2        C        0.40625        0.962963        0.06710228323699421        0        
C2        C        0.46875        0.962963        0.06710228323699421        0        
C2        C        0.53125        0.962963        0.06710228323699421        0        
C2        C        0.59375        0.962963        0.06710228323699421        0        
C2        C        0.65625        0.962963        0.06710228323699421        0        
C2        C        0.71875        0.962963        0.06710228323699421        0        
C2        C        0.78125        0.962963        0.06710228323699421        0        
C2        C        0.84375        0.962963        0.06710228323699421        0        
C2        C        0.9062500000000001        0.962963        0.06710228323699421        0        
C2        C        0.9687500000000001        0.962963        0.06710228323699421        0        
C3        C        0.0        0.9814809999999999        0.06710228323699421        0        
C3        C        0.0625        0.9814809999999999        0.06710228323699421        0        
C3        C        0.125        0.9814809999999999        0.06710228323699421        0        
C3        C        0.1875        0.9814809999999999        0.06710228323699421        0        
C3        C        0.25        0.9814809999999999        0.06710228323699421        0        
C3        C        0.3125        0.9814809999999999        0.06710228323699421        0        
C3        C        0.375        0.9814809999999999        0.06710228323699421        0        
C3        C        0.4375        0.9814809999999999        0.06710228323699421        0        
C3        C        0.5        0.9814809999999999        0.06710228323699421        0        
C3        C        0.5625        0.9814809999999999        0.06710228323699421        0        
C3        C        0.625        0.9814809999999999        0.06710228323699421        0        
C3        C        0.6875        0.9814809999999999        0.06710228323699421        0        
C3        C        0.75        0.9814809999999999        0.06710228323699421        0        
C3        C        0.8125        0.9814809999999999        0.06710228323699421        0        
C3        C        0.875        0.9814809999999999        0.06710228323699421        0        
C3        C        0.9375        0.9814809999999999        0.06710228323699421        0        
C4        C        0.03125        0.925925        0.06710228323699421        0        
C4        C        0.09375        0.925925        0.06710228323699421        0        
C4        C        0.15625        0.925925        0.06710228323699421        0        
C4        C        0.21875        0.925925        0.06710228323699421        0        
C4        C        0.28125        0.925925        0.06710228323699421        0        
C4        C        0.34375        0.925925        0.06710228323699421        0        
C4        C        0.40625        0.925925        0.06710228323699421        0        
C4        C        0.46875        0.925925        0.06710228323699421        0        
C4        C        0.53125        0.925925        0.06710228323699421        0        
C4        C        0.59375        0.925925        0.06710228323699421        0        
C4        C        0.65625        0.925925        0.06710228323699421        0        
C4        C        0.71875        0.925925        0.06710228323699421        0        
C4        C        0.78125        0.925925        0.06710228323699421        0        
C4        C        0.84375        0.925925        0.06710228323699421        0        
C4        C        0.9062500000000001        0.925925        0.06710228323699421        0        
C4        C        0.9687500000000001        0.925925        0.06710228323699421        0        
C1        C        0.0        0.018519        0.16392328323699423        0        
C2        C        0.03125        0.074075        0.16392328323699423        0        
C3        C        0.0        0.092592        0.16392328323699423        0        
C4        C        0.03125        0.037037        0.16392328323699423        0        
C1        C        0.0        0.12963        0.16392328323699423        0        
C2        C        0.03125        0.185185        0.16392328323699423        0        
C3        C        0.0        0.203703        0.16392328323699423        0        
C4        C        0.03125        0.148148        0.16392328323699423        0        
C1        C        0.0        0.24074099999999998        0.16392328323699423        0        
C2        C        0.03125        0.296297        0.16392328323699423        0        
C3        C        0.0        0.314815        0.16392328323699423        0        
C4        C        0.03125        0.259259        0.16392328323699423        0        
C1        C        0.0        0.351852        0.16392328323699423        0        
C2        C        0.03125        0.407408        0.16392328323699423        0        
C3        C        0.0        0.42592500000000005        0.16392328323699423        0        
C4        C        0.03125        0.37037        0.16392328323699423        0        
C1        C        0.0        0.46296300000000007        0.16392328323699423        0        
C2        C        0.03125        0.518519        0.16392328323699423        0        
C3        C        0.0        0.537037        0.16392328323699423        0        
C4        C        0.03125        0.481481        0.16392328323699423        0        
C1        C        0.0        0.574075        0.16392328323699423        0        
C2        C        0.03125        0.62963        0.16392328323699423        0        
C3        C        0.0        0.648148        0.16392328323699423        0        
C4        C        0.03125        0.592592        0.16392328323699423        0        
C1        C        0.0625        0.018519        0.16392328323699423        0        
C2        C        0.09375        0.074075        0.16392328323699423        0        
C3        C        0.0625        0.092592        0.16392328323699423        0        
C4        C        0.09375        0.037037        0.16392328323699423        0        
C1        C        0.0625        0.12963        0.16392328323699423        0        
C2        C        0.09375        0.185185        0.16392328323699423        0        
C3        C        0.0625        0.203703        0.16392328323699423        0        
C4        C        0.09375        0.148148        0.16392328323699423        0        
C1        C        0.0625        0.24074099999999998        0.16392328323699423        0        
C2        C        0.09375        0.296297        0.16392328323699423        0        
C3        C        0.0625        0.314815        0.16392328323699423        0        
C4        C        0.09375        0.259259        0.16392328323699423        0        
C1        C        0.0625        0.351852        0.16392328323699423        0        
C2        C        0.09375        0.407408        0.16392328323699423        0        
C3        C        0.0625        0.42592500000000005        0.16392328323699423        0        
C4        C        0.09375        0.37037        0.16392328323699423        0        
C1        C        0.0625        0.46296300000000007        0.16392328323699423        0        
C2        C        0.09375        0.518519        0.16392328323699423        0        
C3        C        0.0625        0.537037        0.16392328323699423        0        
C4        C        0.09375        0.481481        0.16392328323699423        0        
C1        C        0.0625        0.574075        0.16392328323699423        0        
C2        C        0.09375        0.62963        0.16392328323699423        0        
C3        C        0.0625        0.648148        0.16392328323699423        0        
C4        C        0.09375        0.592592        0.16392328323699423        0        
C1        C        0.125        0.018519        0.16392328323699423        0        
C2        C        0.15625        0.074075        0.16392328323699423        0        
C3        C        0.125        0.092592        0.16392328323699423        0        
C4        C        0.15625        0.037037        0.16392328323699423        0        
C1        C        0.125        0.12963        0.16392328323699423        0        
C2        C        0.15625        0.185185        0.16392328323699423        0        
C3        C        0.125        0.203703        0.16392328323699423        0        
C4        C        0.15625        0.148148        0.16392328323699423        0        
C1        C        0.125        0.24074099999999998        0.16392328323699423        0        
C2        C        0.15625        0.296297        0.16392328323699423        0        
C3        C        0.125        0.314815        0.16392328323699423        0        
C4        C        0.15625        0.259259        0.16392328323699423        0        
C1        C        0.125        0.351852        0.16392328323699423        0        
C2        C        0.15625        0.407408        0.16392328323699423        0        
C3        C        0.125        0.42592500000000005        0.16392328323699423        0        
C4        C        0.15625        0.37037        0.16392328323699423        0        
C1        C        0.125        0.46296300000000007        0.16392328323699423        0        
C2        C        0.15625        0.518519        0.16392328323699423        0        
C3        C        0.125        0.537037        0.16392328323699423        0        
C4        C        0.15625        0.481481        0.16392328323699423        0        
C1        C        0.125        0.574075        0.16392328323699423        0        
C2        C        0.15625        0.62963        0.16392328323699423        0        
C3        C        0.125        0.648148        0.16392328323699423        0        
C4        C        0.15625        0.592592        0.16392328323699423        0        
C1        C        0.1875        0.018519        0.16392328323699423        0        
C2        C        0.21875        0.074075        0.16392328323699423        0        
C3        C        0.1875        0.092592        0.16392328323699423        0        
C4        C        0.21875        0.037037        0.16392328323699423        0        
C1        C        0.1875        0.12963        0.16392328323699423        0        
C2        C        0.21875        0.185185        0.16392328323699423        0        
C3        C        0.1875        0.203703        0.16392328323699423        0        
C4        C        0.21875        0.148148        0.16392328323699423        0        
C1        C        0.1875        0.24074099999999998        0.16392328323699423        0        
C2        C        0.21875        0.296297        0.16392328323699423        0        
C3        C        0.1875        0.314815        0.16392328323699423        0        
C4        C        0.21875        0.259259        0.16392328323699423        0        
C1        C        0.1875        0.351852        0.16392328323699423        0        
C2        C        0.21875        0.407408        0.16392328323699423        0        
C3        C        0.1875        0.42592500000000005        0.16392328323699423        0        
C4        C        0.21875        0.37037        0.16392328323699423        0        
C1        C        0.1875        0.46296300000000007        0.16392328323699423        0        
C2        C        0.21875        0.518519        0.16392328323699423        0        
C3        C        0.1875        0.537037        0.16392328323699423        0        
C4        C        0.21875        0.481481        0.16392328323699423        0        
C1        C        0.1875        0.574075        0.16392328323699423        0        
C2        C        0.21875        0.62963        0.16392328323699423        0        
C3        C        0.1875        0.648148        0.16392328323699423        0        
C4        C        0.21875        0.592592        0.16392328323699423        0        
C1        C        0.25        0.018519        0.16392328323699423        0        
C2        C        0.28125        0.074075        0.16392328323699423        0        
C3        C        0.25        0.092592        0.16392328323699423        0        
C4        C        0.28125        0.037037        0.16392328323699423        0        
C1        C        0.25        0.12963        0.16392328323699423        0        
C2        C        0.28125        0.185185        0.16392328323699423        0        
C3        C        0.25        0.203703        0.16392328323699423        0        
C4        C        0.28125        0.148148        0.16392328323699423        0        
C1        C        0.25        0.24074099999999998        0.16392328323699423        0        
C2        C        0.28125        0.296297        0.16392328323699423        0        
C3        C        0.25        0.314815        0.16392328323699423        0        
C4        C        0.28125        0.259259        0.16392328323699423        0        
C1        C        0.25        0.351852        0.16392328323699423        0        
C2        C        0.28125        0.407408        0.16392328323699423        0        
C3        C        0.25        0.42592500000000005        0.16392328323699423        0        
C4        C        0.28125        0.37037        0.16392328323699423        0        
C1        C        0.25        0.46296300000000007        0.16392328323699423        0        
C2        C        0.28125        0.518519        0.16392328323699423        0        
C3        C        0.25        0.537037        0.16392328323699423        0        
C4        C        0.28125        0.481481        0.16392328323699423        0        
C1        C        0.25        0.574075        0.16392328323699423        0        
C2        C        0.28125        0.62963        0.16392328323699423        0        
C3        C        0.25        0.648148        0.16392328323699423        0        
C4        C        0.28125        0.592592        0.16392328323699423        0        
C1        C        0.3125        0.018519        0.16392328323699423        0        
C2        C        0.34375        0.074075        0.16392328323699423        0        
C3        C        0.3125        0.092592        0.16392328323699423        0        
C4        C        0.34375        0.037037        0.16392328323699423        0        
C1        C        0.3125        0.12963        0.16392328323699423        0        
C2        C        0.34375        0.185185        0.16392328323699423        0        
C3        C        0.3125        0.203703        0.16392328323699423        0        
C4        C        0.34375        0.148148        0.16392328323699423        0        
C1        C        0.3125        0.24074099999999998        0.16392328323699423        0        
C2        C        0.34375        0.296297        0.16392328323699423        0        
C3        C        0.3125        0.314815        0.16392328323699423        0        
C4        C        0.34375        0.259259        0.16392328323699423        0        
C1        C        0.3125        0.351852        0.16392328323699423        0        
C2        C        0.34375        0.407408        0.16392328323699423        0        
C3        C        0.3125        0.42592500000000005        0.16392328323699423        0        
C4        C        0.34375        0.37037        0.16392328323699423        0        
C1        C        0.3125        0.46296300000000007        0.16392328323699423        0        
C2        C        0.34375        0.518519        0.16392328323699423        0        
C3        C        0.3125        0.537037        0.16392328323699423        0        
C4        C        0.34375        0.481481        0.16392328323699423        0        
C1        C        0.3125        0.574075        0.16392328323699423        0        
C2        C        0.34375        0.62963        0.16392328323699423        0        
C3        C        0.3125        0.648148        0.16392328323699423        0        
C4        C        0.34375        0.592592        0.16392328323699423        0        
C1        C        0.375        0.018519        0.16392328323699423        0        
C2        C        0.40625        0.074075        0.16392328323699423        0        
C3        C        0.375        0.092592        0.16392328323699423        0        
C4        C        0.40625        0.037037        0.16392328323699423        0        
C1        C        0.375        0.12963        0.16392328323699423        0        
C2        C        0.40625        0.185185        0.16392328323699423        0        
C3        C        0.375        0.203703        0.16392328323699423        0        
C4        C        0.40625        0.148148        0.16392328323699423        0        
C1        C        0.375        0.24074099999999998        0.16392328323699423        0        
C2        C        0.40625        0.296297        0.16392328323699423        0        
C3        C        0.375        0.314815        0.16392328323699423        0        
C4        C        0.40625        0.259259        0.16392328323699423        0        
C1        C        0.375        0.351852        0.16392328323699423        0        
C2        C        0.40625        0.407408        0.16392328323699423        0        
C3        C        0.375        0.42592500000000005        0.16392328323699423        0        
C4        C        0.40625        0.37037        0.16392328323699423        0        
C1        C        0.375        0.46296300000000007        0.16392328323699423        0        
C2        C        0.40625        0.518519        0.16392328323699423        0        
C3        C        0.375        0.537037        0.16392328323699423        0        
C4        C        0.40625        0.481481        0.16392328323699423        0        
C1        C        0.375        0.574075        0.16392328323699423        0        
C2        C        0.40625        0.62963        0.16392328323699423        0        
C3        C        0.375        0.648148        0.16392328323699423        0        
C4        C        0.40625        0.592592        0.16392328323699423        0        
C1        C        0.4375        0.018519        0.16392328323699423        0        
C2        C        0.46875        0.074075        0.16392328323699423        0        
C3        C        0.4375        0.092592        0.16392328323699423        0        
C4        C        0.46875        0.037037        0.16392328323699423        0        
C1        C        0.4375        0.12963        0.16392328323699423        0        
C2        C        0.46875        0.185185        0.16392328323699423        0        
C3        C        0.4375        0.203703        0.16392328323699423        0        
C4        C        0.46875        0.148148        0.16392328323699423        0        
C1        C        0.4375        0.24074099999999998        0.16392328323699423        0        
C2        C        0.46875        0.296297        0.16392328323699423        0        
C3        C        0.4375        0.314815        0.16392328323699423        0        
C4        C        0.46875        0.259259        0.16392328323699423        0        
C1        C        0.4375        0.351852        0.16392328323699423        0        
C2        C        0.46875        0.407408        0.16392328323699423        0        
C3        C        0.4375        0.42592500000000005        0.16392328323699423        0        
C4        C        0.46875        0.37037        0.16392328323699423        0        
C1        C        0.4375        0.46296300000000007        0.16392328323699423        0        
C2        C        0.46875        0.518519        0.16392328323699423        0        
C3        C        0.4375        0.537037        0.16392328323699423        0        
C4        C        0.46875        0.481481        0.16392328323699423        0        
C1        C        0.4375        0.574075        0.16392328323699423        0        
C2        C        0.46875        0.62963        0.16392328323699423        0        
C3        C        0.4375        0.648148        0.16392328323699423        0        
C4        C        0.46875        0.592592        0.16392328323699423        0        
C1        C        0.5        0.018519        0.16392328323699423        0        
C2        C        0.53125        0.074075        0.16392328323699423        0        
C3        C        0.5        0.092592        0.16392328323699423        0        
C4        C        0.53125        0.037037        0.16392328323699423        0        
C1        C        0.5        0.12963        0.16392328323699423        0        
C2        C        0.53125        0.185185        0.16392328323699423        0        
C3        C        0.5        0.203703        0.16392328323699423        0        
C4        C        0.53125        0.148148        0.16392328323699423        0        
C1        C        0.5        0.24074099999999998        0.16392328323699423        0        
C2        C        0.53125        0.296297        0.16392328323699423        0        
C3        C        0.5        0.314815        0.16392328323699423        0        
C4        C        0.53125        0.259259        0.16392328323699423        0        
C1        C        0.5        0.351852        0.16392328323699423        0        
C2        C        0.53125        0.407408        0.16392328323699423        0        
C3        C        0.5        0.42592500000000005        0.16392328323699423        0        
C4        C        0.53125        0.37037        0.16392328323699423        0        
C1        C        0.5        0.46296300000000007        0.16392328323699423        0        
C2        C        0.53125        0.518519        0.16392328323699423        0        
C3        C        0.5        0.537037        0.16392328323699423        0        
C4        C        0.53125        0.481481        0.16392328323699423        0        
C1        C        0.5        0.574075        0.16392328323699423        0        
C2        C        0.53125        0.62963        0.16392328323699423        0        
C3        C        0.5        0.648148        0.16392328323699423        0        
C4        C        0.53125        0.592592        0.16392328323699423        0        
C1        C        0.5625        0.018519        0.16392328323699423        0        
C2        C        0.59375        0.074075        0.16392328323699423        0        
C3        C        0.5625        0.092592        0.16392328323699423        0        
C4        C        0.59375        0.037037        0.16392328323699423        0        
C1        C        0.5625        0.12963        0.16392328323699423        0        
C2        C        0.59375        0.185185        0.16392328323699423        0        
C3        C        0.5625        0.203703        0.16392328323699423        0        
C4        C        0.59375        0.148148        0.16392328323699423        0        
C1        C        0.5625        0.24074099999999998        0.16392328323699423        0        
C2        C        0.59375        0.296297        0.16392328323699423        0        
C3        C        0.5625        0.314815        0.16392328323699423        0        
C4        C        0.59375        0.259259        0.16392328323699423        0        
C1        C        0.5625        0.351852        0.16392328323699423        0        
C2        C        0.59375        0.407408        0.16392328323699423        0        
C3        C        0.5625        0.42592500000000005        0.16392328323699423        0        
C4        C        0.59375        0.37037        0.16392328323699423        0        
C1        C        0.5625        0.46296300000000007        0.16392328323699423        0        
C2        C        0.59375        0.518519        0.16392328323699423        0        
C3        C        0.5625        0.537037        0.16392328323699423        0        
C4        C        0.59375        0.481481        0.16392328323699423        0        
C1        C        0.5625        0.574075        0.16392328323699423        0        
C2        C        0.59375        0.62963        0.16392328323699423        0        
C3        C        0.5625        0.648148        0.16392328323699423        0        
C4        C        0.59375        0.592592        0.16392328323699423        0        
C1        C        0.625        0.018519        0.16392328323699423        0        
C2        C        0.65625        0.074075        0.16392328323699423        0        
C3        C        0.625        0.092592        0.16392328323699423        0        
C4        C        0.65625        0.037037        0.16392328323699423        0        
C1        C        0.625        0.12963        0.16392328323699423        0        
C2        C        0.65625        0.185185        0.16392328323699423        0        
C3        C        0.625        0.203703        0.16392328323699423        0        
C4        C        0.65625        0.148148        0.16392328323699423        0        
C1        C        0.625        0.24074099999999998        0.16392328323699423        0        
C2        C        0.65625        0.296297        0.16392328323699423        0        
C3        C        0.625        0.314815        0.16392328323699423        0        
C4        C        0.65625        0.259259        0.16392328323699423        0        
C1        C        0.625        0.351852        0.16392328323699423        0        
C2        C        0.65625        0.407408        0.16392328323699423        0        
C3        C        0.625        0.42592500000000005        0.16392328323699423        0        
C4        C        0.65625        0.37037        0.16392328323699423        0        
C1        C        0.625        0.46296300000000007        0.16392328323699423        0        
C2        C        0.65625        0.518519        0.16392328323699423        0        
C3        C        0.625        0.537037        0.16392328323699423        0        
C4        C        0.65625        0.481481        0.16392328323699423        0        
C1        C        0.625        0.574075        0.16392328323699423        0        
C2        C        0.65625        0.62963        0.16392328323699423        0        
C3        C        0.625        0.648148        0.16392328323699423        0        
C4        C        0.65625        0.592592        0.16392328323699423        0        
C1        C        0.6875        0.018519        0.16392328323699423        0        
C2        C        0.71875        0.074075        0.16392328323699423        0        
C3        C        0.6875        0.092592        0.16392328323699423        0        
C4        C        0.71875        0.037037        0.16392328323699423        0        
C1        C        0.6875        0.12963        0.16392328323699423        0        
C2        C        0.71875        0.185185        0.16392328323699423        0        
C3        C        0.6875        0.203703        0.16392328323699423        0        
C4        C        0.71875        0.148148        0.16392328323699423        0        
C1        C        0.6875        0.24074099999999998        0.16392328323699423        0        
C2        C        0.71875        0.296297        0.16392328323699423        0        
C3        C        0.6875        0.314815        0.16392328323699423        0        
C4        C        0.71875        0.259259        0.16392328323699423        0        
C1        C        0.6875        0.351852        0.16392328323699423        0        
C2        C        0.71875        0.407408        0.16392328323699423        0        
C3        C        0.6875        0.42592500000000005        0.16392328323699423        0        
C4        C        0.71875        0.37037        0.16392328323699423        0        
C1        C        0.6875        0.46296300000000007        0.16392328323699423        0        
C2        C        0.71875        0.518519        0.16392328323699423        0        
C3        C        0.6875        0.537037        0.16392328323699423        0        
C4        C        0.71875        0.481481        0.16392328323699423        0        
C1        C        0.6875        0.574075        0.16392328323699423        0        
C2        C        0.71875        0.62963        0.16392328323699423        0        
C3        C        0.6875        0.648148        0.16392328323699423        0        
C4        C        0.71875        0.592592        0.16392328323699423        0        
C1        C        0.75        0.018519        0.16392328323699423        0        
C2        C        0.78125        0.074075        0.16392328323699423        0        
C3        C        0.75        0.092592        0.16392328323699423        0        
C4        C        0.78125        0.037037        0.16392328323699423        0        
C1        C        0.75        0.12963        0.16392328323699423        0        
C2        C        0.78125        0.185185        0.16392328323699423        0        
C3        C        0.75        0.203703        0.16392328323699423        0        
C4        C        0.78125        0.148148        0.16392328323699423        0        
C1        C        0.75        0.24074099999999998        0.16392328323699423        0        
C2        C        0.78125        0.296297        0.16392328323699423        0        
C3        C        0.75        0.314815        0.16392328323699423        0        
C4        C        0.78125        0.259259        0.16392328323699423        0        
C1        C        0.75        0.351852        0.16392328323699423        0        
C2        C        0.78125        0.407408        0.16392328323699423        0        
C3        C        0.75        0.42592500000000005        0.16392328323699423        0        
C4        C        0.78125        0.37037        0.16392328323699423        0        
C1        C        0.75        0.46296300000000007        0.16392328323699423        0        
C2        C        0.78125        0.518519        0.16392328323699423        0        
C3        C        0.75        0.537037        0.16392328323699423        0        
C4        C        0.78125        0.481481        0.16392328323699423        0        
C1        C        0.75        0.574075        0.16392328323699423        0        
C2        C        0.78125        0.62963        0.16392328323699423        0        
C3        C        0.75        0.648148        0.16392328323699423        0        
C4        C        0.78125        0.592592        0.16392328323699423        0        
C1        C        0.8125        0.018519        0.16392328323699423        0        
C2        C        0.84375        0.074075        0.16392328323699423        0        
C3        C        0.8125        0.092592        0.16392328323699423        0        
C4        C        0.84375        0.037037        0.16392328323699423        0        
C1        C        0.8125        0.12963        0.16392328323699423        0        
C2        C        0.84375        0.185185        0.16392328323699423        0        
C3        C        0.8125        0.203703        0.16392328323699423        0        
C4        C        0.84375        0.148148        0.16392328323699423        0        
C1        C        0.8125        0.24074099999999998        0.16392328323699423        0        
C2        C        0.84375        0.296297        0.16392328323699423        0        
C3        C        0.8125        0.314815        0.16392328323699423        0        
C4        C        0.84375        0.259259        0.16392328323699423        0        
C1        C        0.8125        0.351852        0.16392328323699423        0        
C2        C        0.84375        0.407408        0.16392328323699423        0        
C3        C        0.8125        0.42592500000000005        0.16392328323699423        0        
C4        C        0.84375        0.37037        0.16392328323699423        0        
C1        C        0.8125        0.46296300000000007        0.16392328323699423        0        
C2        C        0.84375        0.518519        0.16392328323699423        0        
C3        C        0.8125        0.537037        0.16392328323699423        0        
C4        C        0.84375        0.481481        0.16392328323699423        0        
C1        C        0.8125        0.574075        0.16392328323699423        0        
C2        C        0.84375        0.62963        0.16392328323699423        0        
C3        C        0.8125        0.648148        0.16392328323699423        0        
C4        C        0.84375        0.592592        0.16392328323699423        0        
C1        C        0.875        0.018519        0.16392328323699423        0        
C2        C        0.9062500000000001        0.074075        0.16392328323699423        0        
C3        C        0.875        0.092592        0.16392328323699423        0        
C4        C        0.9062500000000001        0.037037        0.16392328323699423        0        
C1        C        0.875        0.12963        0.16392328323699423        0        
C2        C        0.9062500000000001        0.185185        0.16392328323699423        0        
C3        C        0.875        0.203703        0.16392328323699423        0        
C4        C        0.9062500000000001        0.148148        0.16392328323699423        0        
C1        C        0.875        0.24074099999999998        0.16392328323699423        0        
C2        C        0.9062500000000001        0.296297        0.16392328323699423        0        
C3        C        0.875        0.314815        0.16392328323699423        0        
C4        C        0.9062500000000001        0.259259        0.16392328323699423        0        
C1        C        0.875        0.351852        0.16392328323699423        0        
C2        C        0.9062500000000001        0.407408        0.16392328323699423        0        
C3        C        0.875        0.42592500000000005        0.16392328323699423        0        
C4        C        0.9062500000000001        0.37037        0.16392328323699423        0        
C1        C        0.875        0.46296300000000007        0.16392328323699423        0        
C2        C        0.9062500000000001        0.518519        0.16392328323699423        0        
C3        C        0.875        0.537037        0.16392328323699423        0        
C4        C        0.9062500000000001        0.481481        0.16392328323699423        0        
C1        C        0.875        0.574075        0.16392328323699423        0        
C2        C        0.9062500000000001        0.62963        0.16392328323699423        0        
C3        C        0.875        0.648148        0.16392328323699423        0        
C4        C        0.9062500000000001        0.592592        0.16392328323699423        0        
C1        C        0.9375        0.018519        0.16392328323699423        0        
C2        C        0.9687500000000001        0.074075        0.16392328323699423        0        
C3        C        0.9375        0.092592        0.16392328323699423        0        
C4        C        0.9687500000000001        0.037037        0.16392328323699423        0        
C1        C        0.9375        0.12963        0.16392328323699423        0        
C2        C        0.9687500000000001        0.185185        0.16392328323699423        0        
C3        C        0.9375        0.203703        0.16392328323699423        0        
C4        C        0.9687500000000001        0.148148        0.16392328323699423        0        
C1        C        0.9375        0.24074099999999998        0.16392328323699423        0        
C2        C        0.9687500000000001        0.296297        0.16392328323699423        0        
C3        C        0.9375        0.314815        0.16392328323699423        0        
C4        C        0.9687500000000001        0.259259        0.16392328323699423        0        
C1        C        0.9375        0.351852        0.16392328323699423        0        
C2        C        0.9687500000000001        0.407408        0.16392328323699423        0        
C3        C        0.9375        0.42592500000000005        0.16392328323699423        0        
C4        C        0.9687500000000001        0.37037        0.16392328323699423        0        
C1        C        0.9375        0.46296300000000007        0.16392328323699423        0        
C2        C        0.9687500000000001        0.518519        0.16392328323699423        0        
C3        C        0.9375        0.537037        0.16392328323699423        0        
C4        C        0.9687500000000001        0.481481        0.16392328323699423        0        
C1        C        0.9375        0.574075        0.16392328323699423        0        
C2        C        0.9687500000000001        0.62963        0.16392328323699423        0        
C3        C        0.9375        0.648148        0.16392328323699423        0        
C4        C        0.9687500000000001        0.592592        0.16392328323699423        0        
C1        C        0.0        0.685186        0.16392328323699423        0        
C1        C        0.0625        0.685186        0.16392328323699423        0        
C1        C        0.125        0.685186        0.16392328323699423        0        
C1        C        0.1875        0.685186        0.16392328323699423        0        
C1        C        0.25        0.685186        0.16392328323699423        0        
C1        C        0.3125        0.685186        0.16392328323699423        0        
C1        C        0.375        0.685186        0.16392328323699423        0        
C1        C        0.4375        0.685186        0.16392328323699423        0        
C1        C        0.5        0.685186        0.16392328323699423        0        
C1        C        0.5625        0.685186        0.16392328323699423        0        
C1        C        0.625        0.685186        0.16392328323699423        0        
C1        C        0.6875        0.685186        0.16392328323699423        0        
C1        C        0.75        0.685186        0.16392328323699423        0        
C1        C        0.8125        0.685186        0.16392328323699423        0        
C1        C        0.875        0.685186        0.16392328323699423        0        
C1        C        0.9375        0.685186        0.16392328323699423        0        
C2        C        0.03125        0.740741        0.16392328323699423        0        
C2        C        0.09375        0.740741        0.16392328323699423        0        
C2        C        0.15625        0.740741        0.16392328323699423        0        
C2        C        0.21875        0.740741        0.16392328323699423        0        
C2        C        0.28125        0.740741        0.16392328323699423        0        
C2        C        0.34375        0.740741        0.16392328323699423        0        
C2        C        0.40625        0.740741        0.16392328323699423        0        
C2        C        0.46875        0.740741        0.16392328323699423        0        
C2        C        0.53125        0.740741        0.16392328323699423        0        
C2        C        0.59375        0.740741        0.16392328323699423        0        
C2        C        0.65625        0.740741        0.16392328323699423        0        
C2        C        0.71875        0.740741        0.16392328323699423        0        
C2        C        0.78125        0.740741        0.16392328323699423        0        
C2        C        0.84375        0.740741        0.16392328323699423        0        
C2        C        0.9062500000000001        0.740741        0.16392328323699423        0        
C2        C        0.9687500000000001        0.740741        0.16392328323699423        0        
C3        C        0.0        0.759259        0.16392328323699423        0        
C3        C        0.0625        0.759259        0.16392328323699423        0        
C3        C        0.125        0.759259        0.16392328323699423        0        
C3        C        0.1875        0.759259        0.16392328323699423        0        
C3        C        0.25        0.759259        0.16392328323699423        0        
C3        C        0.3125        0.759259        0.16392328323699423        0        
C3        C        0.375        0.759259        0.16392328323699423        0        
C3        C        0.4375        0.759259        0.16392328323699423        0        
C3        C        0.5        0.759259        0.16392328323699423        0        
C3        C        0.5625        0.759259        0.16392328323699423        0        
C3        C        0.625        0.759259        0.16392328323699423        0        
C3        C        0.6875        0.759259        0.16392328323699423        0        
C3        C        0.75        0.759259        0.16392328323699423        0        
C3        C        0.8125        0.759259        0.16392328323699423        0        
C3        C        0.875        0.759259        0.16392328323699423        0        
C3        C        0.9375        0.759259        0.16392328323699423        0        
C4        C        0.03125        0.703703        0.16392328323699423        0        
C4        C        0.09375        0.703703        0.16392328323699423        0        
C4        C        0.15625        0.703703        0.16392328323699423        0        
C4        C        0.21875        0.703703        0.16392328323699423        0        
C4        C        0.28125        0.703703        0.16392328323699423        0        
C4        C        0.34375        0.703703        0.16392328323699423        0        
C4        C        0.40625        0.703703        0.16392328323699423        0        
C4        C        0.46875        0.703703        0.16392328323699423        0        
C4        C        0.53125        0.703703        0.16392328323699423        0        
C4        C        0.59375        0.703703        0.16392328323699423        0        
C4        C        0.65625        0.703703        0.16392328323699423        0        
C4        C        0.71875        0.703703        0.16392328323699423        0        
C4        C        0.78125        0.703703        0.16392328323699423        0        
C4        C        0.84375        0.703703        0.16392328323699423        0        
C4        C        0.9062500000000001        0.703703        0.16392328323699423        0        
C4        C        0.9687500000000001        0.703703        0.16392328323699423        0        
C1        C        0.0        0.796297        0.16392328323699423        0        
C1        C        0.0625        0.796297        0.16392328323699423        0        
C1        C        0.125        0.796297        0.16392328323699423        0        
C1        C        0.1875        0.796297        0.16392328323699423        0        
C1        C        0.25        0.796297        0.16392328323699423        0        
C1        C        0.3125        0.796297        0.16392328323699423        0        
C1        C        0.375        0.796297        0.16392328323699423        0        
C1        C        0.4375        0.796297        0.16392328323699423        0        
C1        C        0.5        0.796297        0.16392328323699423        0        
C1        C        0.5625        0.796297        0.16392328323699423        0        
C1        C        0.625        0.796297        0.16392328323699423        0        
C1        C        0.6875        0.796297        0.16392328323699423        0        
C1        C        0.75        0.796297        0.16392328323699423        0        
C1        C        0.8125        0.796297        0.16392328323699423        0        
C1        C        0.875        0.796297        0.16392328323699423        0        
C1        C        0.9375        0.796297        0.16392328323699423        0        
C2        C        0.03125        0.851852        0.16392328323699423        0        
C2        C        0.09375        0.851852        0.16392328323699423        0        
C2        C        0.15625        0.851852        0.16392328323699423        0        
C2        C        0.21875        0.851852        0.16392328323699423        0        
C2        C        0.28125        0.851852        0.16392328323699423        0        
C2        C        0.34375        0.851852        0.16392328323699423        0        
C2        C        0.40625        0.851852        0.16392328323699423        0        
C2        C        0.46875        0.851852        0.16392328323699423        0        
C2        C        0.53125        0.851852        0.16392328323699423        0        
C2        C        0.59375        0.851852        0.16392328323699423        0        
C2        C        0.65625        0.851852        0.16392328323699423        0        
C2        C        0.71875        0.851852        0.16392328323699423        0        
C2        C        0.78125        0.851852        0.16392328323699423        0        
C2        C        0.84375        0.851852        0.16392328323699423        0        
C2        C        0.9062500000000001        0.851852        0.16392328323699423        0        
C2        C        0.9687500000000001        0.851852        0.16392328323699423        0        
C3        C        0.0        0.87037        0.16392328323699423        0        
C3        C        0.0625        0.87037        0.16392328323699423        0        
C3        C        0.125        0.87037        0.16392328323699423        0        
C3        C        0.1875        0.87037        0.16392328323699423        0        
C3        C        0.25        0.87037        0.16392328323699423        0        
C3        C        0.3125        0.87037        0.16392328323699423        0        
C3        C        0.375        0.87037        0.16392328323699423        0        
C3        C        0.4375        0.87037        0.16392328323699423        0        
C3        C        0.5        0.87037        0.16392328323699423        0        
C3        C        0.5625        0.87037        0.16392328323699423        0        
C3        C        0.625        0.87037        0.16392328323699423        0        
C3        C        0.6875        0.87037        0.16392328323699423        0        
C3        C        0.75        0.87037        0.16392328323699423        0        
C3        C        0.8125        0.87037        0.16392328323699423        0        
C3        C        0.875        0.87037        0.16392328323699423        0        
C3        C        0.9375        0.87037        0.16392328323699423        0        
C4        C        0.03125        0.814814        0.16392328323699423        0        
C4        C        0.09375        0.814814        0.16392328323699423        0        
C4        C        0.15625        0.814814        0.16392328323699423        0        
C4        C        0.21875        0.814814        0.16392328323699423        0        
C4        C        0.28125        0.814814        0.16392328323699423        0        
C4        C        0.34375        0.814814        0.16392328323699423        0        
C4        C        0.40625        0.814814        0.16392328323699423        0        
C4        C        0.46875        0.814814        0.16392328323699423        0        
C4        C        0.53125        0.814814        0.16392328323699423        0        
C4        C        0.59375        0.814814        0.16392328323699423        0        
C4        C        0.65625        0.814814        0.16392328323699423        0        
C4        C        0.71875        0.814814        0.16392328323699423        0        
C4        C        0.78125        0.814814        0.16392328323699423        0        
C4        C        0.84375        0.814814        0.16392328323699423        0        
C4        C        0.9062500000000001        0.814814        0.16392328323699423        0        
C4        C        0.9687500000000001        0.814814        0.16392328323699423        0        
C1        C        0.0        0.907408        0.16392328323699423        0        
C1        C        0.0625        0.907408        0.16392328323699423        0        
C1        C        0.125        0.907408        0.16392328323699423        0        
C1        C        0.1875        0.907408        0.16392328323699423        0        
C1        C        0.25        0.907408        0.16392328323699423        0        
C1        C        0.3125        0.907408        0.16392328323699423        0        
C1        C        0.375        0.907408        0.16392328323699423        0        
C1        C        0.4375        0.907408        0.16392328323699423        0        
C1        C        0.5        0.907408        0.16392328323699423        0        
C1        C        0.5625        0.907408        0.16392328323699423        0        
C1        C        0.625        0.907408        0.16392328323699423        0        
C1        C        0.6875        0.907408        0.16392328323699423        0        
C1        C        0.75        0.907408        0.16392328323699423        0        
C1        C        0.8125        0.907408        0.16392328323699423        0        
C1        C        0.875        0.907408        0.16392328323699423        0        
C1        C        0.9375        0.907408        0.16392328323699423        0        
C2        C        0.03125        0.962963        0.16392328323699423        0        
C2        C        0.09375        0.962963        0.16392328323699423        0        
C2        C        0.15625        0.962963        0.16392328323699423        0        
C2        C        0.21875        0.962963        0.16392328323699423        0        
C2        C        0.28125        0.962963        0.16392328323699423        0        
C2        C        0.34375        0.962963        0.16392328323699423        0        
C2        C        0.40625        0.962963        0.16392328323699423        0        
C2        C        0.46875        0.962963        0.16392328323699423        0        
C2        C        0.53125        0.962963        0.16392328323699423        0        
C2        C        0.59375        0.962963        0.16392328323699423        0        
C2        C        0.65625        0.962963        0.16392328323699423        0        
C2        C        0.71875        0.962963        0.16392328323699423        0        
C2        C        0.78125        0.962963        0.16392328323699423        0        
C2        C        0.84375        0.962963        0.16392328323699423        0        
C2        C        0.9062500000000001        0.962963        0.16392328323699423        0        
C2        C        0.9687500000000001        0.962963        0.16392328323699423        0        
C3        C        0.0        0.9814809999999999        0.16392328323699423        0        
C3        C        0.0625        0.9814809999999999        0.16392328323699423        0        
C3        C        0.125        0.9814809999999999        0.16392328323699423        0        
C3        C        0.1875        0.9814809999999999        0.16392328323699423        0        
C3        C        0.25        0.9814809999999999        0.16392328323699423        0        
C3        C        0.3125        0.9814809999999999        0.16392328323699423        0        
C3        C        0.375        0.9814809999999999        0.16392328323699423        0        
C3        C        0.4375        0.9814809999999999        0.16392328323699423        0        
C3        C        0.5        0.9814809999999999        0.16392328323699423        0        
C3        C        0.5625        0.9814809999999999        0.16392328323699423        0        
C3        C        0.625        0.9814809999999999        0.16392328323699423        0        
C3        C        0.6875        0.9814809999999999        0.16392328323699423        0        
C3        C        0.75        0.9814809999999999        0.16392328323699423        0        
C3        C        0.8125        0.9814809999999999        0.16392328323699423        0        
C3        C        0.875        0.9814809999999999        0.16392328323699423        0        
C3        C        0.9375        0.9814809999999999        0.16392328323699423        0        
C4        C        0.03125        0.925925        0.16392328323699423        0        
C4        C        0.09375        0.925925        0.16392328323699423        0        
C4        C        0.15625        0.925925        0.16392328323699423        0        
C4        C        0.21875        0.925925        0.16392328323699423        0        
C4        C        0.28125        0.925925        0.16392328323699423        0        
C4        C        0.34375        0.925925        0.16392328323699423        0        
C4        C        0.40625        0.925925        0.16392328323699423        0        
C4        C        0.46875        0.925925        0.16392328323699423        0        
C4        C        0.53125        0.925925        0.16392328323699423        0        
C4        C        0.59375        0.925925        0.16392328323699423        0        
C4        C        0.65625        0.925925        0.16392328323699423        0        
C4        C        0.71875        0.925925        0.16392328323699423        0        
C4        C        0.78125        0.925925        0.16392328323699423        0        
C4        C        0.84375        0.925925        0.16392328323699423        0        
C4        C        0.9062500000000001        0.925925        0.16392328323699423        0        
C4        C        0.9687500000000001        0.925925        0.16392328323699423        0        
C_FG        C        0.0        0.018519        0.2607442832369943        0.08        
C2        C        0.03125        0.074075        0.2607442832369943        0        
C3        C        0.0        0.092592        0.2607442832369943        0        
C4        C        0.03125        0.037037        0.2607442832369943        0        
C1        C        0.0        0.12963        0.2607442832369943        0        
C2        C        0.03125        0.185185        0.2607442832369943        0        
C_FG        C        0.0        0.203703        0.2607442832369943        0.08        
C4        C        0.03125        0.148148        0.2607442832369943        0        
C1        C        0.0        0.24074099999999998        0.2607442832369943        0        
C2        C        0.03125        0.296297        0.2607442832369943        0        
C3        C        0.0        0.314815        0.2607442832369943        0        
C4        C        0.03125        0.259259        0.2607442832369943        0        
C_FG        C        0.0        0.351852        0.2607442832369943        0.08        
C2        C        0.03125        0.407408        0.2607442832369943        0        
C3        C        0.0        0.42592500000000005        0.2607442832369943        0        
C4        C        0.03125        0.37037        0.2607442832369943        0        
C1        C        0.0        0.46296300000000007        0.2607442832369943        0        
C2        C        0.03125        0.518519        0.2607442832369943        0        
C_FG        C        0.0        0.537037        0.2607442832369943        0.08        
C4        C        0.03125        0.481481        0.2607442832369943        0        
C1        C        0.0        0.574075        0.2607442832369943        0        
C2        C        0.03125        0.62963        0.2607442832369943        0        
C3        C        0.0        0.648148        0.2607442832369943        0        
C4        C        0.03125        0.592592        0.2607442832369943        0        
C1        C        0.0625        0.018519        0.2607442832369943        0        
C2        C        0.09375        0.074075        0.2607442832369943        0        
C3        C        0.0625        0.092592        0.2607442832369943        0        
C4        C        0.09375        0.037037        0.2607442832369943        0        
C1        C        0.0625        0.12963        0.2607442832369943        0        
C2        C        0.09375        0.185185        0.2607442832369943        0        
C3        C        0.0625        0.203703        0.2607442832369943        0        
C4        C        0.09375        0.148148        0.2607442832369943        0        
C1        C        0.0625        0.24074099999999998        0.2607442832369943        0        
C2        C        0.09375        0.296297        0.2607442832369943        0        
C3        C        0.0625        0.314815        0.2607442832369943        0        
C4        C        0.09375        0.259259        0.2607442832369943        0        
C1        C        0.0625        0.351852        0.2607442832369943        0        
C2        C        0.09375        0.407408        0.2607442832369943        0        
C3        C        0.0625        0.42592500000000005        0.2607442832369943        0        
C4        C        0.09375        0.37037        0.2607442832369943        0        
C1        C        0.0625        0.46296300000000007        0.2607442832369943        0        
C2        C        0.09375        0.518519        0.2607442832369943        0        
C3        C        0.0625        0.537037        0.2607442832369943        0        
C4        C        0.09375        0.481481        0.2607442832369943        0        
C1        C        0.0625        0.574075        0.2607442832369943        0        
C2        C        0.09375        0.62963        0.2607442832369943        0        
C3        C        0.0625        0.648148        0.2607442832369943        0        
C4        C        0.09375        0.592592        0.2607442832369943        0        
C1        C        0.125        0.018519        0.2607442832369943        0        
C2        C        0.15625        0.074075        0.2607442832369943        0        
C3        C        0.125        0.092592        0.2607442832369943        0        
C4        C        0.15625        0.037037        0.2607442832369943        0        
C1        C        0.125        0.12963        0.2607442832369943        0        
C2        C        0.15625        0.185185        0.2607442832369943        0        
C3        C        0.125        0.203703        0.2607442832369943        0        
C4        C        0.15625        0.148148        0.2607442832369943        0        
C1        C        0.125        0.24074099999999998        0.2607442832369943        0        
C2        C        0.15625        0.296297        0.2607442832369943        0        
C3        C        0.125        0.314815        0.2607442832369943        0        
C4        C        0.15625        0.259259        0.2607442832369943        0        
C1        C        0.125        0.351852        0.2607442832369943        0        
C2        C        0.15625        0.407408        0.2607442832369943        0        
C3        C        0.125        0.42592500000000005        0.2607442832369943        0        
C4        C        0.15625        0.37037        0.2607442832369943        0        
C1        C        0.125        0.46296300000000007        0.2607442832369943        0        
C2        C        0.15625        0.518519        0.2607442832369943        0        
C3        C        0.125        0.537037        0.2607442832369943        0        
C4        C        0.15625        0.481481        0.2607442832369943        0        
C1        C        0.125        0.574075        0.2607442832369943        0        
C2        C        0.15625        0.62963        0.2607442832369943        0        
C3        C        0.125        0.648148        0.2607442832369943        0        
C4        C        0.15625        0.592592        0.2607442832369943        0        
C1        C        0.1875        0.018519        0.2607442832369943        0        
C2        C        0.21875        0.074075        0.2607442832369943        0        
C3        C        0.1875        0.092592        0.2607442832369943        0        
C4        C        0.21875        0.037037        0.2607442832369943        0        
C1        C        0.1875        0.12963        0.2607442832369943        0        
C2        C        0.21875        0.185185        0.2607442832369943        0        
C3        C        0.1875        0.203703        0.2607442832369943        0        
C4        C        0.21875        0.148148        0.2607442832369943        0        
C1        C        0.1875        0.24074099999999998        0.2607442832369943        0        
C2        C        0.21875        0.296297        0.2607442832369943        0        
C3        C        0.1875        0.314815        0.2607442832369943        0        
C4        C        0.21875        0.259259        0.2607442832369943        0        
C1        C        0.1875        0.351852        0.2607442832369943        0        
C2        C        0.21875        0.407408        0.2607442832369943        0        
C3        C        0.1875        0.42592500000000005        0.2607442832369943        0        
C4        C        0.21875        0.37037        0.2607442832369943        0        
C1        C        0.1875        0.46296300000000007        0.2607442832369943        0        
C2        C        0.21875        0.518519        0.2607442832369943        0        
C3        C        0.1875        0.537037        0.2607442832369943        0        
C4        C        0.21875        0.481481        0.2607442832369943        0        
C1        C        0.1875        0.574075        0.2607442832369943        0        
C2        C        0.21875        0.62963        0.2607442832369943        0        
C3        C        0.1875        0.648148        0.2607442832369943        0        
C4        C        0.21875        0.592592        0.2607442832369943        0        
C_FG        C        0.25        0.018519        0.2607442832369943        0.08        
C2        C        0.28125        0.074075        0.2607442832369943        0        
C3        C        0.25        0.092592        0.2607442832369943        0        
C4        C        0.28125        0.037037        0.2607442832369943        0        
C1        C        0.25        0.12963        0.2607442832369943        0        
C2        C        0.28125        0.185185        0.2607442832369943        0        
C_FG        C        0.25        0.203703        0.2607442832369943        0.08        
C4        C        0.28125        0.148148        0.2607442832369943        0        
C1        C        0.25        0.24074099999999998        0.2607442832369943        0        
C2        C        0.28125        0.296297        0.2607442832369943        0        
C3        C        0.25        0.314815        0.2607442832369943        0        
C4        C        0.28125        0.259259        0.2607442832369943        0        
C_FG        C        0.25        0.351852        0.2607442832369943        0.08        
C2        C        0.28125        0.407408        0.2607442832369943        0        
C3        C        0.25        0.42592500000000005        0.2607442832369943        0        
C4        C        0.28125        0.37037        0.2607442832369943        0        
C1        C        0.25        0.46296300000000007        0.2607442832369943        0        
C2        C        0.28125        0.518519        0.2607442832369943        0        
C_FG        C        0.25        0.537037        0.2607442832369943        0.08        
C4        C        0.28125        0.481481        0.2607442832369943        0        
C1        C        0.25        0.574075        0.2607442832369943        0        
C2        C        0.28125        0.62963        0.2607442832369943        0        
C3        C        0.25        0.648148        0.2607442832369943        0        
C4        C        0.28125        0.592592        0.2607442832369943        0        
C1        C        0.3125        0.018519        0.2607442832369943        0        
C2        C        0.34375        0.074075        0.2607442832369943        0        
C3        C        0.3125        0.092592        0.2607442832369943        0        
C4        C        0.34375        0.037037        0.2607442832369943        0        
C1        C        0.3125        0.12963        0.2607442832369943        0        
C2        C        0.34375        0.185185        0.2607442832369943        0        
C3        C        0.3125        0.203703        0.2607442832369943        0        
C4        C        0.34375        0.148148        0.2607442832369943        0        
C1        C        0.3125        0.24074099999999998        0.2607442832369943        0        
C2        C        0.34375        0.296297        0.2607442832369943        0        
C3        C        0.3125        0.314815        0.2607442832369943        0        
C4        C        0.34375        0.259259        0.2607442832369943        0        
C1        C        0.3125        0.351852        0.2607442832369943        0        
C2        C        0.34375        0.407408        0.2607442832369943        0        
C3        C        0.3125        0.42592500000000005        0.2607442832369943        0        
C4        C        0.34375        0.37037        0.2607442832369943        0        
C1        C        0.3125        0.46296300000000007        0.2607442832369943        0        
C2        C        0.34375        0.518519        0.2607442832369943        0        
C3        C        0.3125        0.537037        0.2607442832369943        0        
C4        C        0.34375        0.481481        0.2607442832369943        0        
C1        C        0.3125        0.574075        0.2607442832369943        0        
C2        C        0.34375        0.62963        0.2607442832369943        0        
C3        C        0.3125        0.648148        0.2607442832369943        0        
C4        C        0.34375        0.592592        0.2607442832369943        0        
C1        C        0.375        0.018519        0.2607442832369943        0        
C2        C        0.40625        0.074075        0.2607442832369943        0        
C3        C        0.375        0.092592        0.2607442832369943        0        
C4        C        0.40625        0.037037        0.2607442832369943        0        
C1        C        0.375        0.12963        0.2607442832369943        0        
C2        C        0.40625        0.185185        0.2607442832369943        0        
C3        C        0.375        0.203703        0.2607442832369943        0        
C4        C        0.40625        0.148148        0.2607442832369943        0        
C1        C        0.375        0.24074099999999998        0.2607442832369943        0        
C2        C        0.40625        0.296297        0.2607442832369943        0        
C3        C        0.375        0.314815        0.2607442832369943        0        
C4        C        0.40625        0.259259        0.2607442832369943        0        
C1        C        0.375        0.351852        0.2607442832369943        0        
C2        C        0.40625        0.407408        0.2607442832369943        0        
C3        C        0.375        0.42592500000000005        0.2607442832369943        0        
C4        C        0.40625        0.37037        0.2607442832369943        0        
C1        C        0.375        0.46296300000000007        0.2607442832369943        0        
C2        C        0.40625        0.518519        0.2607442832369943        0        
C3        C        0.375        0.537037        0.2607442832369943        0        
C4        C        0.40625        0.481481        0.2607442832369943        0        
C1        C        0.375        0.574075        0.2607442832369943        0        
C2        C        0.40625        0.62963        0.2607442832369943        0        
C3        C        0.375        0.648148        0.2607442832369943        0        
C4        C        0.40625        0.592592        0.2607442832369943        0        
C1        C        0.4375        0.018519        0.2607442832369943        0        
C2        C        0.46875        0.074075        0.2607442832369943        0        
C3        C        0.4375        0.092592        0.2607442832369943        0        
C4        C        0.46875        0.037037        0.2607442832369943        0        
C1        C        0.4375        0.12963        0.2607442832369943        0        
C2        C        0.46875        0.185185        0.2607442832369943        0        
C3        C        0.4375        0.203703        0.2607442832369943        0        
C4        C        0.46875        0.148148        0.2607442832369943        0        
C1        C        0.4375        0.24074099999999998        0.2607442832369943        0        
C2        C        0.46875        0.296297        0.2607442832369943        0        
C3        C        0.4375        0.314815        0.2607442832369943        0        
C4        C        0.46875        0.259259        0.2607442832369943        0        
C1        C        0.4375        0.351852        0.2607442832369943        0        
C2        C        0.46875        0.407408        0.2607442832369943        0        
C3        C        0.4375        0.42592500000000005        0.2607442832369943        0        
C4        C        0.46875        0.37037        0.2607442832369943        0        
C1        C        0.4375        0.46296300000000007        0.2607442832369943        0        
C2        C        0.46875        0.518519        0.2607442832369943        0        
C3        C        0.4375        0.537037        0.2607442832369943        0        
C4        C        0.46875        0.481481        0.2607442832369943        0        
C1        C        0.4375        0.574075        0.2607442832369943        0        
C2        C        0.46875        0.62963        0.2607442832369943        0        
C3        C        0.4375        0.648148        0.2607442832369943        0        
C4        C        0.46875        0.592592        0.2607442832369943        0        
C_FG        C        0.5        0.018519        0.2607442832369943        0.08        
C2        C        0.53125        0.074075        0.2607442832369943        0        
C3        C        0.5        0.092592        0.2607442832369943        0        
C4        C        0.53125        0.037037        0.2607442832369943        0        
C1        C        0.5        0.12963        0.2607442832369943        0        
C2        C        0.53125        0.185185        0.2607442832369943        0        
C_FG        C        0.5        0.203703        0.2607442832369943        0.08        
C4        C        0.53125        0.148148        0.2607442832369943        0        
C1        C        0.5        0.24074099999999998        0.2607442832369943        0        
C2        C        0.53125        0.296297        0.2607442832369943        0        
C3        C        0.5        0.314815        0.2607442832369943        0        
C4        C        0.53125        0.259259        0.2607442832369943        0        
C_FG        C        0.5        0.351852        0.2607442832369943        0.08        
C2        C        0.53125        0.407408        0.2607442832369943        0        
C3        C        0.5        0.42592500000000005        0.2607442832369943        0        
C4        C        0.53125        0.37037        0.2607442832369943        0        
C1        C        0.5        0.46296300000000007        0.2607442832369943        0        
C2        C        0.53125        0.518519        0.2607442832369943        0        
C_FG        C        0.5        0.537037        0.2607442832369943        0.08        
C4        C        0.53125        0.481481        0.2607442832369943        0        
C1        C        0.5        0.574075        0.2607442832369943        0        
C2        C        0.53125        0.62963        0.2607442832369943        0        
C3        C        0.5        0.648148        0.2607442832369943        0        
C4        C        0.53125        0.592592        0.2607442832369943        0        
C1        C        0.5625        0.018519        0.2607442832369943        0        
C2        C        0.59375        0.074075        0.2607442832369943        0        
C3        C        0.5625        0.092592        0.2607442832369943        0        
C4        C        0.59375        0.037037        0.2607442832369943        0        
C1        C        0.5625        0.12963        0.2607442832369943        0        
C2        C        0.59375        0.185185        0.2607442832369943        0        
C3        C        0.5625        0.203703        0.2607442832369943        0        
C4        C        0.59375        0.148148        0.2607442832369943        0        
C1        C        0.5625        0.24074099999999998        0.2607442832369943        0        
C2        C        0.59375        0.296297        0.2607442832369943        0        
C3        C        0.5625        0.314815        0.2607442832369943        0        
C4        C        0.59375        0.259259        0.2607442832369943        0        
C1        C        0.5625        0.351852        0.2607442832369943        0        
C2        C        0.59375        0.407408        0.2607442832369943        0        
C3        C        0.5625        0.42592500000000005        0.2607442832369943        0        
C4        C        0.59375        0.37037        0.2607442832369943        0        
C1        C        0.5625        0.46296300000000007        0.2607442832369943        0        
C2        C        0.59375        0.518519        0.2607442832369943        0        
C3        C        0.5625        0.537037        0.2607442832369943        0        
C4        C        0.59375        0.481481        0.2607442832369943        0        
C1        C        0.5625        0.574075        0.2607442832369943        0        
C2        C        0.59375        0.62963        0.2607442832369943        0        
C3        C        0.5625        0.648148        0.2607442832369943        0        
C4        C        0.59375        0.592592        0.2607442832369943        0        
C1        C        0.625        0.018519        0.2607442832369943        0        
C2        C        0.65625        0.074075        0.2607442832369943        0        
C3        C        0.625        0.092592        0.2607442832369943        0        
C4        C        0.65625        0.037037        0.2607442832369943        0        
C1        C        0.625        0.12963        0.2607442832369943        0        
C2        C        0.65625        0.185185        0.2607442832369943        0        
C3        C        0.625        0.203703        0.2607442832369943        0        
C4        C        0.65625        0.148148        0.2607442832369943        0        
C1        C        0.625        0.24074099999999998        0.2607442832369943        0        
C2        C        0.65625        0.296297        0.2607442832369943        0        
C3        C        0.625        0.314815        0.2607442832369943        0        
C4        C        0.65625        0.259259        0.2607442832369943        0        
C1        C        0.625        0.351852        0.2607442832369943        0        
C2        C        0.65625        0.407408        0.2607442832369943        0        
C3        C        0.625        0.42592500000000005        0.2607442832369943        0        
C4        C        0.65625        0.37037        0.2607442832369943        0        
C1        C        0.625        0.46296300000000007        0.2607442832369943        0        
C2        C        0.65625        0.518519        0.2607442832369943        0        
C3        C        0.625        0.537037        0.2607442832369943        0        
C4        C        0.65625        0.481481        0.2607442832369943        0        
C1        C        0.625        0.574075        0.2607442832369943        0        
C2        C        0.65625        0.62963        0.2607442832369943        0        
C3        C        0.625        0.648148        0.2607442832369943        0        
C4        C        0.65625        0.592592        0.2607442832369943        0        
C1        C        0.6875        0.018519        0.2607442832369943        0        
C2        C        0.71875        0.074075        0.2607442832369943        0        
C3        C        0.6875        0.092592        0.2607442832369943        0        
C4        C        0.71875        0.037037        0.2607442832369943        0        
C1        C        0.6875        0.12963        0.2607442832369943        0        
C2        C        0.71875        0.185185        0.2607442832369943        0        
C3        C        0.6875        0.203703        0.2607442832369943        0        
C4        C        0.71875        0.148148        0.2607442832369943        0        
C1        C        0.6875        0.24074099999999998        0.2607442832369943        0        
C2        C        0.71875        0.296297        0.2607442832369943        0        
C3        C        0.6875        0.314815        0.2607442832369943        0        
C4        C        0.71875        0.259259        0.2607442832369943        0        
C1        C        0.6875        0.351852        0.2607442832369943        0        
C2        C        0.71875        0.407408        0.2607442832369943        0        
C3        C        0.6875        0.42592500000000005        0.2607442832369943        0        
C4        C        0.71875        0.37037        0.2607442832369943        0        
C1        C        0.6875        0.46296300000000007        0.2607442832369943        0        
C2        C        0.71875        0.518519        0.2607442832369943        0        
C3        C        0.6875        0.537037        0.2607442832369943        0        
C4        C        0.71875        0.481481        0.2607442832369943        0        
C1        C        0.6875        0.574075        0.2607442832369943        0        
C2        C        0.71875        0.62963        0.2607442832369943        0        
C3        C        0.6875        0.648148        0.2607442832369943        0        
C4        C        0.71875        0.592592        0.2607442832369943        0        
C_FG        C        0.75        0.018519        0.2607442832369943        0.08        
C2        C        0.78125        0.074075        0.2607442832369943        0        
C3        C        0.75        0.092592        0.2607442832369943        0        
C4        C        0.78125        0.037037        0.2607442832369943        0        
C1        C        0.75        0.12963        0.2607442832369943        0        
C2        C        0.78125        0.185185        0.2607442832369943        0        
C_FG        C        0.75        0.203703        0.2607442832369943        0.08        
C4        C        0.78125        0.148148        0.2607442832369943        0        
C1        C        0.75        0.24074099999999998        0.2607442832369943        0        
C2        C        0.78125        0.296297        0.2607442832369943        0        
C3        C        0.75        0.314815        0.2607442832369943        0        
C4        C        0.78125        0.259259        0.2607442832369943        0        
C_FG        C        0.75        0.351852        0.2607442832369943        0.08        
C2        C        0.78125        0.407408        0.2607442832369943        0        
C3        C        0.75        0.42592500000000005        0.2607442832369943        0        
C4        C        0.78125        0.37037        0.2607442832369943        0        
C1        C        0.75        0.46296300000000007        0.2607442832369943        0        
C2        C        0.78125        0.518519        0.2607442832369943        0        
C_FG        C        0.75        0.537037        0.2607442832369943        0.08        
C4        C        0.78125        0.481481        0.2607442832369943        0        
C1        C        0.75        0.574075        0.2607442832369943        0        
C2        C        0.78125        0.62963        0.2607442832369943        0        
C3        C        0.75        0.648148        0.2607442832369943        0        
C4        C        0.78125        0.592592        0.2607442832369943        0        
C1        C        0.8125        0.018519        0.2607442832369943        0        
C2        C        0.84375        0.074075        0.2607442832369943        0        
C3        C        0.8125        0.092592        0.2607442832369943        0        
C4        C        0.84375        0.037037        0.2607442832369943        0        
C1        C        0.8125        0.12963        0.2607442832369943        0        
C2        C        0.84375        0.185185        0.2607442832369943        0        
C3        C        0.8125        0.203703        0.2607442832369943        0        
C4        C        0.84375        0.148148        0.2607442832369943        0        
C1        C        0.8125        0.24074099999999998        0.2607442832369943        0        
C2        C        0.84375        0.296297        0.2607442832369943        0        
C3        C        0.8125        0.314815        0.2607442832369943        0        
C4        C        0.84375        0.259259        0.2607442832369943        0        
C1        C        0.8125        0.351852        0.2607442832369943        0        
C2        C        0.84375        0.407408        0.2607442832369943        0        
C3        C        0.8125        0.42592500000000005        0.2607442832369943        0        
C4        C        0.84375        0.37037        0.2607442832369943        0        
C1        C        0.8125        0.46296300000000007        0.2607442832369943        0        
C2        C        0.84375        0.518519        0.2607442832369943        0        
C3        C        0.8125        0.537037        0.2607442832369943        0        
C4        C        0.84375        0.481481        0.2607442832369943        0        
C1        C        0.8125        0.574075        0.2607442832369943        0        
C2        C        0.84375        0.62963        0.2607442832369943        0        
C3        C        0.8125        0.648148        0.2607442832369943        0        
C4        C        0.84375        0.592592        0.2607442832369943        0        
C1        C        0.875        0.018519        0.2607442832369943        0        
C2        C        0.9062500000000001        0.074075        0.2607442832369943        0        
C3        C        0.875        0.092592        0.2607442832369943        0        
C4        C        0.9062500000000001        0.037037        0.2607442832369943        0        
C1        C        0.875        0.12963        0.2607442832369943        0        
C2        C        0.9062500000000001        0.185185        0.2607442832369943        0        
C3        C        0.875        0.203703        0.2607442832369943        0        
C4        C        0.9062500000000001        0.148148        0.2607442832369943        0        
C1        C        0.875        0.24074099999999998        0.2607442832369943        0        
C2        C        0.9062500000000001        0.296297        0.2607442832369943        0        
C3        C        0.875        0.314815        0.2607442832369943        0        
C4        C        0.9062500000000001        0.259259        0.2607442832369943        0        
C1        C        0.875        0.351852        0.2607442832369943        0        
C2        C        0.9062500000000001        0.407408        0.2607442832369943        0        
C3        C        0.875        0.42592500000000005        0.2607442832369943        0        
C4        C        0.9062500000000001        0.37037        0.2607442832369943        0        
C1        C        0.875        0.46296300000000007        0.2607442832369943        0        
C2        C        0.9062500000000001        0.518519        0.2607442832369943        0        
C3        C        0.875        0.537037        0.2607442832369943        0        
C4        C        0.9062500000000001        0.481481        0.2607442832369943        0        
C1        C        0.875        0.574075        0.2607442832369943        0        
C2        C        0.9062500000000001        0.62963        0.2607442832369943        0        
C3        C        0.875        0.648148        0.2607442832369943        0        
C4        C        0.9062500000000001        0.592592        0.2607442832369943        0        
C1        C        0.9375        0.018519        0.2607442832369943        0        
C2        C        0.9687500000000001        0.074075        0.2607442832369943        0        
C3        C        0.9375        0.092592        0.2607442832369943        0        
C4        C        0.9687500000000001        0.037037        0.2607442832369943        0        
C1        C        0.9375        0.12963        0.2607442832369943        0        
C2        C        0.9687500000000001        0.185185        0.2607442832369943        0        
C3        C        0.9375        0.203703        0.2607442832369943        0        
C4        C        0.9687500000000001        0.148148        0.2607442832369943        0        
C1        C        0.9375        0.24074099999999998        0.2607442832369943        0        
C2        C        0.9687500000000001        0.296297        0.2607442832369943        0        
C3        C        0.9375        0.314815        0.2607442832369943        0        
C4        C        0.9687500000000001        0.259259        0.2607442832369943        0        
C1        C        0.9375        0.351852        0.2607442832369943        0        
C2        C        0.9687500000000001        0.407408        0.2607442832369943        0        
C3        C        0.9375        0.42592500000000005        0.2607442832369943        0        
C4        C        0.9687500000000001        0.37037        0.2607442832369943        0        
C1        C        0.9375        0.46296300000000007        0.2607442832369943        0        
C2        C        0.9687500000000001        0.518519        0.2607442832369943        0        
C3        C        0.9375        0.537037        0.2607442832369943        0        
C4        C        0.9687500000000001        0.481481        0.2607442832369943        0        
C1        C        0.9375        0.574075        0.2607442832369943        0        
C2        C        0.9687500000000001        0.62963        0.2607442832369943        0        
C3        C        0.9375        0.648148        0.2607442832369943        0        
C4        C        0.9687500000000001        0.592592        0.2607442832369943        0        
C_FG        C        0.0        0.685186        0.2607442832369943        0.08        
C1        C        0.0625        0.685186        0.2607442832369943        0        
C1        C        0.125        0.685186        0.2607442832369943        0        
C1        C        0.1875        0.685186        0.2607442832369943        0        
C_FG        C        0.25        0.685186        0.2607442832369943        0.08        
C1        C        0.3125        0.685186        0.2607442832369943        0        
C1        C        0.375        0.685186        0.2607442832369943        0        
C1        C        0.4375        0.685186        0.2607442832369943        0        
C_FG        C        0.5        0.685186        0.2607442832369943        0.08        
C1        C        0.5625        0.685186        0.2607442832369943        0        
C1        C        0.625        0.685186        0.2607442832369943        0        
C1        C        0.6875        0.685186        0.2607442832369943        0        
C_FG        C        0.75        0.685186        0.2607442832369943        0.08        
C1        C        0.8125        0.685186        0.2607442832369943        0        
C1        C        0.875        0.685186        0.2607442832369943        0        
C1        C        0.9375        0.685186        0.2607442832369943        0        
C2        C        0.03125        0.740741        0.2607442832369943        0        
C2        C        0.09375        0.740741        0.2607442832369943        0        
C2        C        0.15625        0.740741        0.2607442832369943        0        
C2        C        0.21875        0.740741        0.2607442832369943        0        
C2        C        0.28125        0.740741        0.2607442832369943        0        
C2        C        0.34375        0.740741        0.2607442832369943        0        
C2        C        0.40625        0.740741        0.2607442832369943        0        
C2        C        0.46875        0.740741        0.2607442832369943        0        
C2        C        0.53125        0.740741        0.2607442832369943        0        
C2        C        0.59375        0.740741        0.2607442832369943        0        
C2        C        0.65625        0.740741        0.2607442832369943        0        
C2        C        0.71875        0.740741        0.2607442832369943        0        
C2        C        0.78125        0.740741        0.2607442832369943        0        
C2        C        0.84375        0.740741        0.2607442832369943        0        
C2        C        0.9062500000000001        0.740741        0.2607442832369943        0        
C2        C        0.9687500000000001        0.740741        0.2607442832369943        0        
C3        C        0.0        0.759259        0.2607442832369943        0        
C3        C        0.0625        0.759259        0.2607442832369943        0        
C3        C        0.125        0.759259        0.2607442832369943        0        
C3        C        0.1875        0.759259        0.2607442832369943        0        
C3        C        0.25        0.759259        0.2607442832369943        0        
C3        C        0.3125        0.759259        0.2607442832369943        0        
C3        C        0.375        0.759259        0.2607442832369943        0        
C3        C        0.4375        0.759259        0.2607442832369943        0        
C3        C        0.5        0.759259        0.2607442832369943        0        
C3        C        0.5625        0.759259        0.2607442832369943        0        
C3        C        0.625        0.759259        0.2607442832369943        0        
C3        C        0.6875        0.759259        0.2607442832369943        0        
C3        C        0.75        0.759259        0.2607442832369943        0        
C3        C        0.8125        0.759259        0.2607442832369943        0        
C3        C        0.875        0.759259        0.2607442832369943        0        
C3        C        0.9375        0.759259        0.2607442832369943        0        
C4        C        0.03125        0.703703        0.2607442832369943        0        
C4        C        0.09375        0.703703        0.2607442832369943        0        
C4        C        0.15625        0.703703        0.2607442832369943        0        
C4        C        0.21875        0.703703        0.2607442832369943        0        
C4        C        0.28125        0.703703        0.2607442832369943        0        
C4        C        0.34375        0.703703        0.2607442832369943        0        
C4        C        0.40625        0.703703        0.2607442832369943        0        
C4        C        0.46875        0.703703        0.2607442832369943        0        
C4        C        0.53125        0.703703        0.2607442832369943        0        
C4        C        0.59375        0.703703        0.2607442832369943        0        
C4        C        0.65625        0.703703        0.2607442832369943        0        
C4        C        0.71875        0.703703        0.2607442832369943        0        
C4        C        0.78125        0.703703        0.2607442832369943        0        
C4        C        0.84375        0.703703        0.2607442832369943        0        
C4        C        0.9062500000000001        0.703703        0.2607442832369943        0        
C4        C        0.9687500000000001        0.703703        0.2607442832369943        0        
C1        C        0.0        0.796297        0.2607442832369943        0        
C1        C        0.0625        0.796297        0.2607442832369943        0        
C1        C        0.125        0.796297        0.2607442832369943        0        
C1        C        0.1875        0.796297        0.2607442832369943        0        
C1        C        0.25        0.796297        0.2607442832369943        0        
C1        C        0.3125        0.796297        0.2607442832369943        0        
C1        C        0.375        0.796297        0.2607442832369943        0        
C1        C        0.4375        0.796297        0.2607442832369943        0        
C1        C        0.5        0.796297        0.2607442832369943        0        
C1        C        0.5625        0.796297        0.2607442832369943        0        
C1        C        0.625        0.796297        0.2607442832369943        0        
C1        C        0.6875        0.796297        0.2607442832369943        0        
C1        C        0.75        0.796297        0.2607442832369943        0        
C1        C        0.8125        0.796297        0.2607442832369943        0        
C1        C        0.875        0.796297        0.2607442832369943        0        
C1        C        0.9375        0.796297        0.2607442832369943        0        
C2        C        0.03125        0.851852        0.2607442832369943        0        
C2        C        0.09375        0.851852        0.2607442832369943        0        
C2        C        0.15625        0.851852        0.2607442832369943        0        
C2        C        0.21875        0.851852        0.2607442832369943        0        
C2        C        0.28125        0.851852        0.2607442832369943        0        
C2        C        0.34375        0.851852        0.2607442832369943        0        
C2        C        0.40625        0.851852        0.2607442832369943        0        
C2        C        0.46875        0.851852        0.2607442832369943        0        
C2        C        0.53125        0.851852        0.2607442832369943        0        
C2        C        0.59375        0.851852        0.2607442832369943        0        
C2        C        0.65625        0.851852        0.2607442832369943        0        
C2        C        0.71875        0.851852        0.2607442832369943        0        
C2        C        0.78125        0.851852        0.2607442832369943        0        
C2        C        0.84375        0.851852        0.2607442832369943        0        
C2        C        0.9062500000000001        0.851852        0.2607442832369943        0        
C2        C        0.9687500000000001        0.851852        0.2607442832369943        0        
C_FG        C        0.0        0.87037        0.2607442832369943        0.08        
C3        C        0.0625        0.87037        0.2607442832369943        0        
C3        C        0.125        0.87037        0.2607442832369943        0        
C3        C        0.1875        0.87037        0.2607442832369943        0        
C_FG        C        0.25        0.87037        0.2607442832369943        0.08        
C3        C        0.3125        0.87037        0.2607442832369943        0        
C3        C        0.375        0.87037        0.2607442832369943        0        
C3        C        0.4375        0.87037        0.2607442832369943        0        
C_FG        C        0.5        0.87037        0.2607442832369943        0.08        
C3        C        0.5625        0.87037        0.2607442832369943        0        
C3        C        0.625        0.87037        0.2607442832369943        0        
C3        C        0.6875        0.87037        0.2607442832369943        0        
C_FG        C        0.75        0.87037        0.2607442832369943        0.08        
C3        C        0.8125        0.87037        0.2607442832369943        0        
C3        C        0.875        0.87037        0.2607442832369943        0        
C3        C        0.9375        0.87037        0.2607442832369943        0        
C4        C        0.03125        0.814814        0.2607442832369943        0        
C4        C        0.09375        0.814814        0.2607442832369943        0        
C4        C        0.15625        0.814814        0.2607442832369943        0        
C4        C        0.21875        0.814814        0.2607442832369943        0        
C4        C        0.28125        0.814814        0.2607442832369943        0        
C4        C        0.34375        0.814814        0.2607442832369943        0        
C4        C        0.40625        0.814814        0.2607442832369943        0        
C4        C        0.46875        0.814814        0.2607442832369943        0        
C4        C        0.53125        0.814814        0.2607442832369943        0        
C4        C        0.59375        0.814814        0.2607442832369943        0        
C4        C        0.65625        0.814814        0.2607442832369943        0        
C4        C        0.71875        0.814814        0.2607442832369943        0        
C4        C        0.78125        0.814814        0.2607442832369943        0        
C4        C        0.84375        0.814814        0.2607442832369943        0        
C4        C        0.9062500000000001        0.814814        0.2607442832369943        0        
C4        C        0.9687500000000001        0.814814        0.2607442832369943        0        
C1        C        0.0        0.907408        0.2607442832369943        0        
C1        C        0.0625        0.907408        0.2607442832369943        0        
C1        C        0.125        0.907408        0.2607442832369943        0        
C1        C        0.1875        0.907408        0.2607442832369943        0        
C1        C        0.25        0.907408        0.2607442832369943        0        
C1        C        0.3125        0.907408        0.2607442832369943        0        
C1        C        0.375        0.907408        0.2607442832369943        0        
C1        C        0.4375        0.907408        0.2607442832369943        0        
C1        C        0.5        0.907408        0.2607442832369943        0        
C1        C        0.5625        0.907408        0.2607442832369943        0        
C1        C        0.625        0.907408        0.2607442832369943        0        
C1        C        0.6875        0.907408        0.2607442832369943        0        
C1        C        0.75        0.907408        0.2607442832369943        0        
C1        C        0.8125        0.907408        0.2607442832369943        0        
C1        C        0.875        0.907408        0.2607442832369943        0        
C1        C        0.9375        0.907408        0.2607442832369943        0        
C2        C        0.03125        0.962963        0.2607442832369943        0        
C2        C        0.09375        0.962963        0.2607442832369943        0        
C2        C        0.15625        0.962963        0.2607442832369943        0        
C2        C        0.21875        0.962963        0.2607442832369943        0        
C2        C        0.28125        0.962963        0.2607442832369943        0        
C2        C        0.34375        0.962963        0.2607442832369943        0        
C2        C        0.40625        0.962963        0.2607442832369943        0        
C2        C        0.46875        0.962963        0.2607442832369943        0        
C2        C        0.53125        0.962963        0.2607442832369943        0        
C2        C        0.59375        0.962963        0.2607442832369943        0        
C2        C        0.65625        0.962963        0.2607442832369943        0        
C2        C        0.71875        0.962963        0.2607442832369943        0        
C2        C        0.78125        0.962963        0.2607442832369943        0        
C2        C        0.84375        0.962963        0.2607442832369943        0        
C2        C        0.9062500000000001        0.962963        0.2607442832369943        0        
C2        C        0.9687500000000001        0.962963        0.2607442832369943        0        
C3        C        0.0        0.9814809999999999        0.2607442832369943        0        
C3        C        0.0625        0.9814809999999999        0.2607442832369943        0        
C3        C        0.125        0.9814809999999999        0.2607442832369943        0        
C3        C        0.1875        0.9814809999999999        0.2607442832369943        0        
C3        C        0.25        0.9814809999999999        0.2607442832369943        0        
C3        C        0.3125        0.9814809999999999        0.2607442832369943        0        
C3        C        0.375        0.9814809999999999        0.2607442832369943        0        
C3        C        0.4375        0.9814809999999999        0.2607442832369943        0        
C3        C        0.5        0.9814809999999999        0.2607442832369943        0        
C3        C        0.5625        0.9814809999999999        0.2607442832369943        0        
C3        C        0.625        0.9814809999999999        0.2607442832369943        0        
C3        C        0.6875        0.9814809999999999        0.2607442832369943        0        
C3        C        0.75        0.9814809999999999        0.2607442832369943        0        
C3        C        0.8125        0.9814809999999999        0.2607442832369943        0        
C3        C        0.875        0.9814809999999999        0.2607442832369943        0        
C3        C        0.9375        0.9814809999999999        0.2607442832369943        0        
C4        C        0.03125        0.925925        0.2607442832369943        0        
C4        C        0.09375        0.925925        0.2607442832369943        0        
C4        C        0.15625        0.925925        0.2607442832369943        0        
C4        C        0.21875        0.925925        0.2607442832369943        0        
C4        C        0.28125        0.925925        0.2607442832369943        0        
C4        C        0.34375        0.925925        0.2607442832369943        0        
C4        C        0.40625        0.925925        0.2607442832369943        0        
C4        C        0.46875        0.925925        0.2607442832369943        0        
C4        C        0.53125        0.925925        0.2607442832369943        0        
C4        C        0.59375        0.925925        0.2607442832369943        0        
C4        C        0.65625        0.925925        0.2607442832369943        0        
C4        C        0.71875        0.925925        0.2607442832369943        0        
C4        C        0.78125        0.925925        0.2607442832369943        0        
C4        C        0.84375        0.925925        0.2607442832369943        0        
C4        C        0.9062500000000001        0.925925        0.2607442832369943        0        
C4        C        0.9687500000000001        0.925925        0.2607442832369943        0        
C_COOH        C        0.0        0.018519        0.02317164739884393        0.55        
C_COOH        C        0.0        0.203703        0.02317164739884393        0.55        
C_COOH        C        0.0        0.351852        0.02317164739884393        0.55        
C_COOH        C        0.0        0.537037        0.02317164739884393        0.55        
C_COOH        C        0.25        0.018519        0.02317164739884393        0.55        
C_COOH        C        0.25        0.203703        0.02317164739884393        0.55        
C_COOH        C        0.25        0.351852        0.02317164739884393        0.55        
C_COOH        C        0.25        0.537037        0.02317164739884393        0.55        
C_COOH        C        0.5        0.018519        0.02317164739884393        0.55        
C_COOH        C        0.5        0.203703        0.02317164739884393        0.55        
C_COOH        C        0.5        0.351852        0.02317164739884393        0.55        
C_COOH        C        0.5        0.537037        0.02317164739884393        0.55        
C_COOH        C        0.75        0.018519        0.02317164739884393        0.55        
C_COOH        C        0.75        0.203703        0.02317164739884393        0.55        
C_COOH        C        0.75        0.351852        0.02317164739884393        0.55        
C_COOH        C        0.75        0.537037        0.02317164739884393        0.55        
C_COOH        C        0.0        0.685186        0.02317164739884393        0.55        
C_COOH        C        0.25        0.685186        0.02317164739884393        0.55        
C_COOH        C        0.5        0.685186        0.02317164739884393        0.55        
C_COOH        C        0.75        0.685186        0.02317164739884393        0.55        
C_COOH        C        0.0        0.87037        0.02317164739884393        0.55        
C_COOH        C        0.25        0.87037        0.02317164739884393        0.55        
C_COOH        C        0.5        0.87037        0.02317164739884393        0.55        
C_COOH        C        0.75        0.87037        0.02317164739884393        0.55        
C_COOH        C        0.0        0.018519        0.3046745375722543        0.55        
C_COOH        C        0.0        0.203703        0.3046745375722543        0.55        
C_COOH        C        0.0        0.351852        0.3046745375722543        0.55        
C_COOH        C        0.0        0.537037        0.3046745375722543        0.55        
C_COOH        C        0.25        0.018519        0.3046745375722543        0.55        
C_COOH        C        0.25        0.203703        0.3046745375722543        0.55        
C_COOH        C        0.25        0.351852        0.3046745375722543        0.55        
C_COOH        C        0.25        0.537037        0.3046745375722543        0.55        
C_COOH        C        0.5        0.018519        0.3046745375722543        0.55        
C_COOH        C        0.5        0.203703        0.3046745375722543        0.55        
C_COOH        C        0.5        0.351852        0.3046745375722543        0.55        
C_COOH        C        0.5        0.537037        0.3046745375722543        0.55        
C_COOH        C        0.75        0.018519        0.3046745375722543        0.55        
C_COOH        C        0.75        0.203703        0.3046745375722543        0.55        
C_COOH        C        0.75        0.351852        0.3046745375722543        0.55        
C_COOH        C        0.75        0.537037        0.3046745375722543        0.55        
C_COOH        C        0.0        0.685186        0.3046745375722543        0.55        
C_COOH        C        0.25        0.685186        0.3046745375722543        0.55        
C_COOH        C        0.5        0.685186        0.3046745375722543        0.55        
C_COOH        C        0.75        0.685186        0.3046745375722543        0.55        
C_COOH        C        0.0        0.87037        0.3046745375722543        0.55        
C_COOH        C        0.25        0.87037        0.3046745375722543        0.55        
C_COOH        C        0.5        0.87037        0.3046745375722543        0.55        
C_COOH        C        0.75        0.87037        0.3046745375722543        0.55        
O1_COOH        O        -0.01103232781759666        0.04582421918209954        0.010597687861271674        -0.5        
O1_COOH        O        0.028131009170256228        0.2100140415452362        0.010597687861271674        -0.5        
O1_COOH        O        -0.027040362554548034        0.36201300236014977        0.010597687861271674        -0.5        
O1_COOH        O        0.0155806442353165        0.5618966976492861        0.010597687861271674        -0.5        
O1_COOH        O        0.26913903683007706        0.04060513143764692        0.010597687861271674        -0.5        
O1_COOH        O        0.24846852149254486        0.233222105627339        0.010597687861271674        -0.5        
O1_COOH        O        0.22532563786132007        0.3670901108359535        0.010597687861271674        -0.5        
O1_COOH        O        0.27800178169219136        0.5439271556572874        0.010597687861271674        -0.5        
O1_COOH        O        0.5181953620548152        0.04143031319964924        0.010597687861271674        -0.5        
O1_COOH        O        0.5108393649388313        0.23108954719824149        0.010597687861271674        -0.5        
O1_COOH        O        0.5248844008342997        0.3667257869844896        0.010597687861271674        -0.5        
O1_COOH        O        0.47323682236380876        0.5479440424706339        0.010597687861271674        -0.5        
O1_COOH        O        0.7392070790682742        0.04592487211278105        0.010597687861271674        -0.5        
O1_COOH        O        0.7517836574836566        0.2332071779299771        0.010597687861271674        -0.5        
O1_COOH        O        0.7314091013660055        0.3744261770051735        0.010597687861271674        -0.5        
O1_COOH        O        0.7767760666805569        0.5479106516415799        0.010597687861271674        -0.5        
O1_COOH        O        0.01176856610963298        0.7121653073075453        0.010597687861271674        -0.5        
O1_COOH        O        0.2730645359474885        0.7028833122241348        0.010597687861271674        -0.5        
O1_COOH        O        0.4760565527238501        0.7016070666278577        0.010597687861271674        -0.5        
O1_COOH        O        0.7374694625866445        0.7118012125336904        0.010597687861271674        -0.5        
O1_COOH        O        -0.0004279350532637069        0.8999276805132083        0.010597687861271674        -0.5        
O1_COOH        O        0.27742761198038        0.8793708913632682        0.010597687861271674        -0.5        
O1_COOH        O        0.4874025177195238        0.8969518857374311        0.010597687861271674        -0.5        
O1_COOH        O        0.776956872365725        0.8807621736969597        0.010597687861271674        -0.5        
O1_COOH        O        -0.017464618597733184        0.04202201102004289        0.31724849710982655        -0.5        
O1_COOH        O        -0.014453374461897378        0.2292702917935759        0.31724849710982655        -0.5        
O1_COOH        O        -0.0268334335662392        0.3625755757284929        0.31724849710982655        -0.5        
O1_COOH        O        -0.0005186189427709314        0.5665931501574868        0.31724849710982655        -0.5        
O1_COOH        O        0.23338262989561814        0.04266075453162694        0.31724849710982655        -0.5        
O1_COOH        O        0.22122691045184126        0.20485291918784315        0.31724849710982655        -0.5        
O1_COOH        O        0.22419132716727502        0.3649611252320033        0.31724849710982655        -0.5        
O1_COOH        O        0.27829249419037333        0.5425348575128343        0.31724849710982655        -0.5        
O1_COOH        O        0.4811950636437058        0.040905553971174034        0.31724849710982655        -0.5        
O1_COOH        O        0.5287761393013469        0.20476946160803192        0.31724849710982655        -0.5        
O1_COOH        O        0.47161612906262        0.3568287770820725        0.31724849710982655        -0.5        
O1_COOH        O        0.5139454829579725        0.5628998615261651        0.31724849710982655        -0.5        
O1_COOH        O        0.7558440328556916        0.047464731708248484        0.31724849710982655        -0.5        
O1_COOH        O        0.7216529418245338        0.2088962005066848        0.31724849710982655        -0.5        
O1_COOH        O        0.728744877488        0.37179469545444643        0.31724849710982655        -0.5        
O1_COOH        O        0.7435430572960621        0.5658451499233903        0.31724849710982655        -0.5        
O1_COOH        O        -0.02878696078983713        0.6858794239107115        0.31724849710982655        -0.5        
O1_COOH        O        0.2213716568731357        0.6883607337937905        0.31724849710982655        -0.5        
O1_COOH        O        0.4712435928073547        0.6867136734736761        0.31724849710982655        -0.5        
O1_COOH        O        0.7779546597383029        0.6922749481638001        0.31724849710982655        -0.5        
O1_COOH        O        -0.02574230252244986        0.8836159461500603        0.31724849710982655        -0.5        
O1_COOH        O        0.2258383297490809        0.8864506653279961        0.31724849710982655        -0.5        
O1_COOH        O        0.47604738842581096        0.8867769750387904        0.31724849710982655        -0.5        
O1_COOH        O        0.7660443207976909        0.8949168980195459        0.31724849710982655        -0.5        
O2_COOH        O        0.010741594377438981        -0.008066648440699964        0.0        -0.58        
O2_COOH        O        -0.027389676497188733        0.19755827247749416        0.0        -0.58        
O2_COOH        O        0.026327771543967707        0.3419587691582876        0.0        -0.58        
O2_COOH        O        -0.015170049628874388        0.5128324265945137        0.0        -0.58        
O2_COOH        O        0.23136533161427222        -0.0029850986084193508        0.0        -0.58        
O2_COOH        O        0.251491119661855        0.17496180736358258        0.0        -0.58        
O2_COOH        O        0.27402412201647897        0.3370154570342266        0.0        -0.58        
O2_COOH        O        0.22273614546665627        0.530328419681171        0.0        -0.58        
O2_COOH        O        0.48228413785604435        -0.003788534467255191        0.0        -0.58        
O2_COOH        O        0.4894462833767276        0.17703816676934794        0.0        -0.58        
O2_COOH        O        0.4757713744091878        0.33737017990859675        0.0        -0.58        
O2_COOH        O        0.5260578912422074        0.5264173893417506        0.0        -0.58        
O2_COOH        O        0.760508496548793        -0.008164648878337129        0.0        -0.58        
O2_COOH        O        0.7482633470003345        0.1749763416733585        0.0        -0.58        
O2_COOH        O        0.7681009752012569        0.32987271722276756        0.0        -0.58        
O2_COOH        O        0.7239295593766669        0.5264499002268109        0.0        -0.58        
O2_COOH        O        -0.011458430681521487        0.6589176747223833        0.0        -0.58        
O2_COOH        O        0.22754328064321852        0.6679550626470199        0.0        -0.58        
O2_COOH        O        0.5233124688542863        0.6691976755160224        0.0        -0.58        
O2_COOH        O        0.76220032185872        0.6592721745559956        0.0        -0.58        
O2_COOH        O        0.0004166577387878831        0.8415912490364538        0.0        -0.58        
O2_COOH        O        0.22329518416184907        0.8616063079072569        0.0        -0.58        
O2_COOH        O        0.512265502536828        0.8444886230957088        0.0        -0.58        
O2_COOH        O        0.7237535184392218        0.860251689848394        0.0        -0.58        
O2_COOH        O        0.017004375870186418        -0.0043646393551597966        0.3278461849710983        -0.58        
O2_COOH        O        0.014072486643055356        0.17880947958283344        0.3278461849710983        -0.58        
O2_COOH        O        0.026126295727250053        0.34141102120969485        0.3278461849710983        -0.58        
O2_COOH        O        0.0005049518480420895        0.5082597390629184        0.3278461849710983        -0.58        
O2_COOH        O        0.2661794548015829        -0.004986550145529284        0.3278461849710983        -0.58        
O2_COOH        O        0.2780148362178907        0.20258338447670637        0.3278461849710983        -0.58        
O2_COOH        O        0.2751285403744967        0.33908833776902175        0.3278461849710983        -0.58        
O2_COOH        O        0.22245309407554895        0.531684026781272        0.3278461849710983        -0.58        
O2_COOH        O        0.5183093724164618        -0.003277604147626023        0.3278461849710983        -0.58        
O2_COOH        O        0.4719821943986537        0.20266464271022488        0.3278461849710983        -0.58        
O2_COOH        O        0.5276358746324249        0.3470063752500456        0.3278461849710983        -0.58        
O2_COOH        O        0.4864220204648831        0.5118556989593589        0.3278461849710983        -0.58        
O2_COOH        O        0.7443099741503204        -0.009663928762527682        0.3278461849710983        -0.58        
O2_COOH        O        0.7776000319922379        0.19864665520261787        0.3278461849710983        -0.58        
O2_COOH        O        0.7706949891483929        0.33243485169673953        0.3278461849710983        -0.58        
O2_COOH        O        0.756286783767741        0.5089880273481956        0.3278461849710983        -0.58        
O2_COOH        O        0.028028341912616637        0.6845108497956522        0.3278461849710983        -0.58        
O2_COOH        O        0.2778739042794243        0.6820949295357183        0.3278461849710983        -0.58        
O2_COOH        O        0.5279985934902317        0.6836985850983843        0.3278461849710983        -0.58        
O2_COOH        O        0.7227820256220786        0.6782838659266471        0.3278461849710983        -0.58        
O2_COOH        O        0.025063919112015463        0.8574731224740796        0.3278461849710983        -0.58        
O2_COOH        O        0.2735249410285694        0.8547131062665512        0.3278461849710983        -0.58        
O2_COOH        O        0.5233213916468209        0.8543953957513524        0.3278461849710983        -0.58        
O2_COOH        O        0.7343784930143739        0.8464699830579941        0.3278461849710983        -0.58        
H_COOH        H        0.018282388509019244        -0.02673025597432236        0.016871676300578037        0.45        
H_COOH        H        -0.04661772631348853        0.19324456227640952        0.016871676300578037        0.45        
H_COOH        H        0.04481034481757066        0.335013541620163        0.016871676300578037        0.45        
H_COOH        H        -0.02581969968989924        0.49584037693409727        0.016871676300578037        0.45        
H_COOH        H        0.218283456329335        -0.018081365968121463        0.016871676300578037        0.45        
H_COOH        H        0.25253791271701054        0.1547849686977581        0.016871676300578037        0.45        
H_COOH        H        0.2908894915279858        0.3265999347013197        0.016871676300578037        0.45        
H_COOH        H        0.20359642495169178        0.5256188745874079        0.016871676300578037        0.45        
H_COOH        H        0.46984728122220853        -0.019448828376138448        0.016871676300578037        0.45        
H_COOH        H        0.4820373828371312        0.15831897007657475        0.016871676300578037        0.45        
H_COOH        H        0.4587624396783075        0.3272036794690324        0.016871676300578037        0.45        
H_COOH        H        0.5443510036476901        0.5189622299941224        0.016871676300578037        0.45        
H_COOH        H        0.7678856517757031        -0.02689705449714684        0.016871676300578037        0.45        
H_COOH        H        0.7470441850874648        0.15480970635668434        0.016871676300578037        0.45        
H_COOH        H        0.7808081881882047        0.3144428619555635        0.016871676300578037        0.45        
H_COOH        H        0.7056276370779574        0.5190175641103214        0.016871676300578037        0.45        
H_COOH        H        -0.019502456903719732        0.6404768338062585        0.016871676300578037        0.45        
H_COOH        H        0.21177825623531152        0.6558586320141625        0.016871676300578037        0.45        
H_COOH        H        0.5396782449348166        0.6579735816612213        0.016871676300578037        0.45        
H_COOH        H        0.7707651691470199        0.6410801989545548        0.016871676300578037        0.45        
H_COOH        H        0.0007091590306006047        0.8213880437435856        0.016871676300578037        0.45        
H_COOH        H        0.20454791895323        0.8554540370634858        0.016871676300578037        0.45        
H_COOH        H        0.5208761078436956        0.826319426957842        0.016871676300578037        0.45        
H_COOH        H        0.7053280122086157        0.8531484525512386        0.016871676300578037        0.45        
H_COOH        H        0.028941756231746725        -0.020429369347294366        0.3109745086705202        0.45        
H_COOH        H        0.023951627575576222        0.16133377662104478        0.3109745086705202        0.45        
H_COOH        H        0.04446742932225641        0.3340812646741796        0.3109745086705202        0.45        
H_COOH        H        0.0008594372064209114        0.488057579795661        0.3109745086705202        0.45        
H_COOH        H        0.2775377256069112        -0.021487872795475867        0.3109745086705202        0.45        
H_COOH        H        0.29768175950003944        0.20179739406680858        0.3109745086705202        0.45        
H_COOH        H        0.2927692316101641        0.33012801531903346        0.3109745086705202        0.45        
H_COOH        H        0.20311466634878725        0.5279261424657862        0.3109745086705202        0.45        
H_COOH        H        0.5311628840293152        -0.018579215702612333        0.3109745086705202        0.45        
H_COOH        H        0.4523131865554474        0.2019356970544789        0.3109745086705202        0.45        
H_COOH        H        0.5470367600062926        0.3436046587641724        0.3109745086705202        0.45        
H_COOH        H        0.4768900324936954        0.4941779687788515        0.3109745086705202        0.45        
H_COOH        H        0.7403154727729528        -0.029448856060618676        0.3109745086705202        0.45        
H_COOH        H        0.7969757551824219        0.1950970094204769        0.3109745086705202        0.45        
H_COOH        H        0.7852232469879451        0.3188036613136077        0.3109745086705202        0.45        
H_COOH        H        0.7607002200302263        0.4892971396701217        0.3109745086705202        0.45        
H_COOH        H        0.047704746437489065        0.6840368821033352        0.3109745086705202        0.45        
H_COOH        H        0.29744189078392186        0.6799249419902648        0.3109745086705202        0.45        
H_COOH        H        0.5476541140828813        0.6826543928521304        0.3109745086705202        0.45        
H_COOH        H        0.703674513808598        0.673438442585673        0.3109745086705202        0.45        
H_COOH        H        0.04265924504903436        0.8484192804701929        0.3109745086705202        0.45        
H_COOH        H        0.2900398764302079        0.8437216828115804        0.3109745086705202        0.45        
H_COOH        H        0.5396934316895916        0.8431809337506713        0.3109745086705202        0.45        
H_COOH        H        0.7234119116983759        0.8296917375603351        0.3109745086705202        0.45        
