data_graphite_ortho

_audit_creation_method RASPA-1.0
_audit_creation_date 2012-2-3
_audit_author_name 'David Dubbeldam'

_cell_length_a    39.36    
_cell_length_b    38.339999999999996    
_cell_length_c    13.7    
_cell_angle_alpha 90
_cell_angle_beta  90
_cell_angle_gamma 90
_cell_volume      20674.15      

_symmetry_cell_setting          triclinic
_symmetry_space_group_name_Hall 'P 1'
_symmetry_space_group_name_H-M  'P 1'
_symmetry_Int_Tables_number     1

_symmetry_equiv_pos_as_xyz 'x,y,z'

loop_
_atom_site_label
_atom_site_type_symbol
_atom_site_fract_x
_atom_site_fract_y
_atom_site_fract_z
_atom_site_charge
C_Base_COOH        C        0.0        0.018519        0.16947        0.08        
C_Base_COOH        C        0.03125        0.074075        0.16947        0.08        
C_Base_COOH        C        0.0        0.092592        0.16947        0.08        
C_Base_COOH        C        0.03125        0.037037        0.16947        0.08        
C_Base_CO        C        0.0        0.12963        0.16947        0.5        
C_Base_OH        C        0.03125        0.185185        0.16947        0.2        
C_Base_CO        C        0.0        0.203703        0.16947        0.5        
C_Base_OH        C        0.03125        0.148148        0.16947        0.2        
C_Base_OH        C        0.0        0.24074099999999998        0.16947        0.2        
C_Base_CO        C        0.03125        0.296297        0.16947        0.5        
C_Base_CO        C        0.0        0.314815        0.16947        0.5        
C_Base_COOH        C        0.03125        0.259259        0.16947        0.08        
C_Base_CO        C        0.0        0.351852        0.16947        0.5        
C_Base_COOH        C        0.03125        0.407408        0.16947        0.08        
C_Base_COOH        C        0.0        0.425925        0.16947        0.08        
C_Base_OH        C        0.03125        0.37037        0.16947        0.2        
C_Base_CO        C        0.0        0.46296300000000007        0.16947        0.5        
C_Base_OH        C        0.03125        0.518519        0.16947        0.2        
C_Base_OH        C        0.0        0.537037        0.16947        0.2        
C_Base_OH        C        0.03125        0.481481        0.16947        0.2        
C_Base_COOH        C        0.0        0.574075        0.16947        0.08        
C_Base_CO        C        0.03125        0.62963        0.16947        0.5        
C_Base_COOH        C        0.0        0.648148        0.16947        0.08        
C_Base_COOH        C        0.03125        0.592592        0.16947        0.08        
C_Base_COOH        C        0.0625        0.018519        0.16947        0.08        
C_Base_COOH        C        0.09375        0.074075        0.16947        0.08        
C_Base_COOH        C        0.0625        0.092592        0.16947        0.08        
C_Base_COOH        C        0.09375        0.037037        0.16947        0.08        
C_Base_CO        C        0.0625        0.12963        0.16947        0.5        
C_Base_OH        C        0.09375        0.185185        0.16947        0.2        
C_Base_CO        C        0.0625        0.203703        0.16947        0.5        
C_Base_OH        C        0.09375        0.148148        0.16947        0.2        
C_Base_OH        C        0.0625        0.24074099999999998        0.16947        0.2        
C_Base_CO        C        0.09375        0.296297        0.16947        0.5        
C_Base_CO        C        0.0625        0.314815        0.16947        0.5        
C_Base_COOH        C        0.09375        0.259259        0.16947        0.08        
C_Base_CO        C        0.0625        0.351852        0.16947        0.5        
C_Base_COOH        C        0.09375        0.407408        0.16947        0.08        
C_Base_COOH        C        0.0625        0.425925        0.16947        0.08        
C_Base_OH        C        0.09375        0.37037        0.16947        0.2        
C_Base_CO        C        0.0625        0.46296300000000007        0.16947        0.5        
C_Base_OH        C        0.09375        0.518519        0.16947        0.2        
C_Base_OH        C        0.0625        0.537037        0.16947        0.2        
C_Base_OH        C        0.09375        0.481481        0.16947        0.2        
C_Base_COOH        C        0.0625        0.574075        0.16947        0.08        
C_Base_CO        C        0.09375        0.62963        0.16947        0.5        
C_Base_COOH        C        0.0625        0.648148        0.16947        0.08        
C_Base_COOH        C        0.09375        0.592592        0.16947        0.08        
C1        C        0.125        0.018519        0.16947        0        
C2        C        0.15625        0.074075        0.16947        0        
C3        C        0.125        0.092592        0.16947        0        
C4        C        0.15625        0.037037        0.16947        0        
C1        C        0.125        0.12963        0.16947        0        
C2        C        0.15625        0.185185        0.16947        0        
C3        C        0.125        0.203703        0.16947        0        
C4        C        0.15625        0.148148        0.16947        0        
C1        C        0.125        0.24074099999999998        0.16947        0        
C2        C        0.15625        0.296297        0.16947        0        
C3        C        0.125        0.314815        0.16947        0        
C4        C        0.15625        0.259259        0.16947        0        
C1        C        0.125        0.351852        0.16947        0        
C2        C        0.15625        0.407408        0.16947        0        
C3        C        0.125        0.425925        0.16947        0        
C4        C        0.15625        0.37037        0.16947        0        
C1        C        0.125        0.46296300000000007        0.16947        0        
C2        C        0.15625        0.518519        0.16947        0        
C3        C        0.125        0.537037        0.16947        0        
C4        C        0.15625        0.481481        0.16947        0        
C1        C        0.125        0.574075        0.16947        0        
C2        C        0.15625        0.62963        0.16947        0        
C3        C        0.125        0.648148        0.16947        0        
C4        C        0.15625        0.592592        0.16947        0        
C1        C        0.1875        0.018519        0.16947        0        
C2        C        0.21875        0.074075        0.16947        0        
C3        C        0.1875        0.092592        0.16947        0        
C4        C        0.21875        0.037037        0.16947        0        
C1        C        0.1875        0.12963        0.16947        0        
C2        C        0.21875        0.185185        0.16947        0        
C3        C        0.1875        0.203703        0.16947        0        
C4        C        0.21875        0.148148        0.16947        0        
C1        C        0.1875        0.24074099999999998        0.16947        0        
C2        C        0.21875        0.296297        0.16947        0        
C3        C        0.1875        0.314815        0.16947        0        
C4        C        0.21875        0.259259        0.16947        0        
C1        C        0.1875        0.351852        0.16947        0        
C2        C        0.21875        0.407408        0.16947        0        
C3        C        0.1875        0.425925        0.16947        0        
C4        C        0.21875        0.37037        0.16947        0        
C1        C        0.1875        0.46296300000000007        0.16947        0        
C2        C        0.21875        0.518519        0.16947        0        
C3        C        0.1875        0.537037        0.16947        0        
C4        C        0.21875        0.481481        0.16947        0        
C1        C        0.1875        0.574075        0.16947        0        
C2        C        0.21875        0.62963        0.16947        0        
C3        C        0.1875        0.648148        0.16947        0        
C4        C        0.21875        0.592592        0.16947        0        
C1        C        0.25        0.018519        0.16947        0        
C2        C        0.28125        0.074075        0.16947        0        
C3        C        0.25        0.092592        0.16947        0        
C4        C        0.28125        0.037037        0.16947        0        
C1        C        0.25        0.12963        0.16947        0        
C2        C        0.28125        0.185185        0.16947        0        
C3        C        0.25        0.203703        0.16947        0        
C4        C        0.28125        0.148148        0.16947        0        
C1        C        0.25        0.24074099999999998        0.16947        0        
C2        C        0.28125        0.296297        0.16947        0        
C3        C        0.25        0.314815        0.16947        0        
C4        C        0.28125        0.259259        0.16947        0        
C1        C        0.25        0.351852        0.16947        0        
C2        C        0.28125        0.407408        0.16947        0        
C3        C        0.25        0.425925        0.16947        0        
C4        C        0.28125        0.37037        0.16947        0        
C1        C        0.25        0.46296300000000007        0.16947        0        
C2        C        0.28125        0.518519        0.16947        0        
C3        C        0.25        0.537037        0.16947        0        
C4        C        0.28125        0.481481        0.16947        0        
C1        C        0.25        0.574075        0.16947        0        
C2        C        0.28125        0.62963        0.16947        0        
C3        C        0.25        0.648148        0.16947        0        
C4        C        0.28125        0.592592        0.16947        0        
C1        C        0.3125        0.018519        0.16947        0        
C2        C        0.34375        0.074075        0.16947        0        
C3        C        0.3125        0.092592        0.16947        0        
C4        C        0.34375        0.037037        0.16947        0        
C1        C        0.3125        0.12963        0.16947        0        
C2        C        0.34375        0.185185        0.16947        0        
C3        C        0.3125        0.203703        0.16947        0        
C4        C        0.34375        0.148148        0.16947        0        
C1        C        0.3125        0.24074099999999998        0.16947        0        
C2        C        0.34375        0.296297        0.16947        0        
C3        C        0.3125        0.314815        0.16947        0        
C4        C        0.34375        0.259259        0.16947        0        
C1        C        0.3125        0.351852        0.16947        0        
C2        C        0.34375        0.407408        0.16947        0        
C3        C        0.3125        0.425925        0.16947        0        
C4        C        0.34375        0.37037        0.16947        0        
C1        C        0.3125        0.46296300000000007        0.16947        0        
C2        C        0.34375        0.518519        0.16947        0        
C3        C        0.3125        0.537037        0.16947        0        
C4        C        0.34375        0.481481        0.16947        0        
C1        C        0.3125        0.574075        0.16947        0        
C2        C        0.34375        0.62963        0.16947        0        
C3        C        0.3125        0.648148        0.16947        0        
C4        C        0.34375        0.592592        0.16947        0        
C1        C        0.375        0.018519        0.16947        0        
C2        C        0.40625        0.074075        0.16947        0        
C3        C        0.375        0.092592        0.16947        0        
C4        C        0.40625        0.037037        0.16947        0        
C1        C        0.375        0.12963        0.16947        0        
C2        C        0.40625        0.185185        0.16947        0        
C3        C        0.375        0.203703        0.16947        0        
C4        C        0.40625        0.148148        0.16947        0        
C1        C        0.375        0.24074099999999998        0.16947        0        
C2        C        0.40625        0.296297        0.16947        0        
C3        C        0.375        0.314815        0.16947        0        
C4        C        0.40625        0.259259        0.16947        0        
C1        C        0.375        0.351852        0.16947        0        
C2        C        0.40625        0.407408        0.16947        0        
C3        C        0.375        0.425925        0.16947        0        
C4        C        0.40625        0.37037        0.16947        0        
C1        C        0.375        0.46296300000000007        0.16947        0        
C2        C        0.40625        0.518519        0.16947        0        
C3        C        0.375        0.537037        0.16947        0        
C4        C        0.40625        0.481481        0.16947        0        
C1        C        0.375        0.574075        0.16947        0        
C2        C        0.40625        0.62963        0.16947        0        
C3        C        0.375        0.648148        0.16947        0        
C4        C        0.40625        0.592592        0.16947        0        
C1        C        0.4375        0.018519        0.16947        0        
C2        C        0.46875        0.074075        0.16947        0        
C3        C        0.4375        0.092592        0.16947        0        
C4        C        0.46875        0.037037        0.16947        0        
C1        C        0.4375        0.12963        0.16947        0        
C2        C        0.46875        0.185185        0.16947        0        
C3        C        0.4375        0.203703        0.16947        0        
C4        C        0.46875        0.148148        0.16947        0        
C1        C        0.4375        0.24074099999999998        0.16947        0        
C2        C        0.46875        0.296297        0.16947        0        
C3        C        0.4375        0.314815        0.16947        0        
C4        C        0.46875        0.259259        0.16947        0        
C1        C        0.4375        0.351852        0.16947        0        
C2        C        0.46875        0.407408        0.16947        0        
C3        C        0.4375        0.425925        0.16947        0        
C4        C        0.46875        0.37037        0.16947        0        
C1        C        0.4375        0.46296300000000007        0.16947        0        
C2        C        0.46875        0.518519        0.16947        0        
C3        C        0.4375        0.537037        0.16947        0        
C4        C        0.46875        0.481481        0.16947        0        
C1        C        0.4375        0.574075        0.16947        0        
C2        C        0.46875        0.62963        0.16947        0        
C3        C        0.4375        0.648148        0.16947        0        
C4        C        0.46875        0.592592        0.16947        0        
C1        C        0.5        0.018519        0.16947        0        
C2        C        0.53125        0.074075        0.16947        0        
C3        C        0.5        0.092592        0.16947        0        
C4        C        0.53125        0.037037        0.16947        0        
C1        C        0.5        0.12963        0.16947        0        
C2        C        0.53125        0.185185        0.16947        0        
C3        C        0.5        0.203703        0.16947        0        
C4        C        0.53125        0.148148        0.16947        0        
C1        C        0.5        0.24074099999999998        0.16947        0        
C2        C        0.53125        0.296297        0.16947        0        
C3        C        0.5        0.314815        0.16947        0        
C4        C        0.53125        0.259259        0.16947        0        
C1        C        0.5        0.351852        0.16947        0        
C2        C        0.53125        0.407408        0.16947        0        
C3        C        0.5        0.425925        0.16947        0        
C4        C        0.53125        0.37037        0.16947        0        
C1        C        0.5        0.46296300000000007        0.16947        0        
C2        C        0.53125        0.518519        0.16947        0        
C3        C        0.5        0.537037        0.16947        0        
C4        C        0.53125        0.481481        0.16947        0        
C1        C        0.5        0.574075        0.16947        0        
C2        C        0.53125        0.62963        0.16947        0        
C3        C        0.5        0.648148        0.16947        0        
C4        C        0.53125        0.592592        0.16947        0        
C1        C        0.5625        0.018519        0.16947        0        
C2        C        0.59375        0.074075        0.16947        0        
C3        C        0.5625        0.092592        0.16947        0        
C4        C        0.59375        0.037037        0.16947        0        
C1        C        0.5625        0.12963        0.16947        0        
C2        C        0.59375        0.185185        0.16947        0        
C3        C        0.5625        0.203703        0.16947        0        
C4        C        0.59375        0.148148        0.16947        0        
C1        C        0.5625        0.24074099999999998        0.16947        0        
C2        C        0.59375        0.296297        0.16947        0        
C3        C        0.5625        0.314815        0.16947        0        
C4        C        0.59375        0.259259        0.16947        0        
C1        C        0.5625        0.351852        0.16947        0        
C2        C        0.59375        0.407408        0.16947        0        
C3        C        0.5625        0.425925        0.16947        0        
C4        C        0.59375        0.37037        0.16947        0        
C1        C        0.5625        0.46296300000000007        0.16947        0        
C2        C        0.59375        0.518519        0.16947        0        
C3        C        0.5625        0.537037        0.16947        0        
C4        C        0.59375        0.481481        0.16947        0        
C1        C        0.5625        0.574075        0.16947        0        
C2        C        0.59375        0.62963        0.16947        0        
C3        C        0.5625        0.648148        0.16947        0        
C4        C        0.59375        0.592592        0.16947        0        
C1        C        0.625        0.018519        0.16947        0        
C2        C        0.65625        0.074075        0.16947        0        
C3        C        0.625        0.092592        0.16947        0        
C4        C        0.65625        0.037037        0.16947        0        
C1        C        0.625        0.12963        0.16947        0        
C2        C        0.65625        0.185185        0.16947        0        
C3        C        0.625        0.203703        0.16947        0        
C4        C        0.65625        0.148148        0.16947        0        
C1        C        0.625        0.24074099999999998        0.16947        0        
C2        C        0.65625        0.296297        0.16947        0        
C3        C        0.625        0.314815        0.16947        0        
C4        C        0.65625        0.259259        0.16947        0        
C1        C        0.625        0.351852        0.16947        0        
C2        C        0.65625        0.407408        0.16947        0        
C3        C        0.625        0.425925        0.16947        0        
C4        C        0.65625        0.37037        0.16947        0        
C1        C        0.625        0.46296300000000007        0.16947        0        
C2        C        0.65625        0.518519        0.16947        0        
C3        C        0.625        0.537037        0.16947        0        
C4        C        0.65625        0.481481        0.16947        0        
C1        C        0.625        0.574075        0.16947        0        
C2        C        0.65625        0.62963        0.16947        0        
C3        C        0.625        0.648148        0.16947        0        
C4        C        0.65625        0.592592        0.16947        0        
C1        C        0.6875        0.018519        0.16947        0        
C2        C        0.71875        0.074075        0.16947        0        
C3        C        0.6875        0.092592        0.16947        0        
C4        C        0.71875        0.037037        0.16947        0        
C1        C        0.6875        0.12963        0.16947        0        
C2        C        0.71875        0.185185        0.16947        0        
C3        C        0.6875        0.203703        0.16947        0        
C4        C        0.71875        0.148148        0.16947        0        
C1        C        0.6875        0.24074099999999998        0.16947        0        
C2        C        0.71875        0.296297        0.16947        0        
C3        C        0.6875        0.314815        0.16947        0        
C4        C        0.71875        0.259259        0.16947        0        
C1        C        0.6875        0.351852        0.16947        0        
C2        C        0.71875        0.407408        0.16947        0        
C3        C        0.6875        0.425925        0.16947        0        
C4        C        0.71875        0.37037        0.16947        0        
C1        C        0.6875        0.46296300000000007        0.16947        0        
C2        C        0.71875        0.518519        0.16947        0        
C3        C        0.6875        0.537037        0.16947        0        
C4        C        0.71875        0.481481        0.16947        0        
C1        C        0.6875        0.574075        0.16947        0        
C2        C        0.71875        0.62963        0.16947        0        
C3        C        0.6875        0.648148        0.16947        0        
C4        C        0.71875        0.592592        0.16947        0        
C1        C        0.75        0.018519        0.16947        0        
C2        C        0.78125        0.074075        0.16947        0        
C3        C        0.75        0.092592        0.16947        0        
C4        C        0.78125        0.037037        0.16947        0        
C1        C        0.75        0.12963        0.16947        0        
C2        C        0.78125        0.185185        0.16947        0        
C3        C        0.75        0.203703        0.16947        0        
C4        C        0.78125        0.148148        0.16947        0        
C1        C        0.75        0.24074099999999998        0.16947        0        
C2        C        0.78125        0.296297        0.16947        0        
C3        C        0.75        0.314815        0.16947        0        
C4        C        0.78125        0.259259        0.16947        0        
C1        C        0.75        0.351852        0.16947        0        
C2        C        0.78125        0.407408        0.16947        0        
C3        C        0.75        0.425925        0.16947        0        
C4        C        0.78125        0.37037        0.16947        0        
C1        C        0.75        0.46296300000000007        0.16947        0        
C2        C        0.78125        0.518519        0.16947        0        
C3        C        0.75        0.537037        0.16947        0        
C4        C        0.78125        0.481481        0.16947        0        
C1        C        0.75        0.574075        0.16947        0        
C2        C        0.78125        0.62963        0.16947        0        
C3        C        0.75        0.648148        0.16947        0        
C4        C        0.78125        0.592592        0.16947        0        
C1        C        0.8125        0.018519        0.16947        0        
C2        C        0.84375        0.074075        0.16947        0        
C3        C        0.8125        0.092592        0.16947        0        
C4        C        0.84375        0.037037        0.16947        0        
C1        C        0.8125        0.12963        0.16947        0        
C2        C        0.84375        0.185185        0.16947        0        
C3        C        0.8125        0.203703        0.16947        0        
C4        C        0.84375        0.148148        0.16947        0        
C1        C        0.8125        0.24074099999999998        0.16947        0        
C2        C        0.84375        0.296297        0.16947        0        
C3        C        0.8125        0.314815        0.16947        0        
C4        C        0.84375        0.259259        0.16947        0        
C1        C        0.8125        0.351852        0.16947        0        
C2        C        0.84375        0.407408        0.16947        0        
C3        C        0.8125        0.425925        0.16947        0        
C4        C        0.84375        0.37037        0.16947        0        
C1        C        0.8125        0.46296300000000007        0.16947        0        
C2        C        0.84375        0.518519        0.16947        0        
C3        C        0.8125        0.537037        0.16947        0        
C4        C        0.84375        0.481481        0.16947        0        
C1        C        0.8125        0.574075        0.16947        0        
C2        C        0.84375        0.62963        0.16947        0        
C3        C        0.8125        0.648148        0.16947        0        
C4        C        0.84375        0.592592        0.16947        0        
C1        C        0.875        0.018519        0.16947        0        
C2        C        0.9062500000000001        0.074075        0.16947        0        
C3        C        0.875        0.092592        0.16947        0        
C4        C        0.9062500000000001        0.037037        0.16947        0        
C1        C        0.875        0.12963        0.16947        0        
C2        C        0.9062500000000001        0.185185        0.16947        0        
C3        C        0.875        0.203703        0.16947        0        
C4        C        0.9062500000000001        0.148148        0.16947        0        
C1        C        0.875        0.24074099999999998        0.16947        0        
C2        C        0.9062500000000001        0.296297        0.16947        0        
C3        C        0.875        0.314815        0.16947        0        
C4        C        0.9062500000000001        0.259259        0.16947        0        
C1        C        0.875        0.351852        0.16947        0        
C2        C        0.9062500000000001        0.407408        0.16947        0        
C3        C        0.875        0.425925        0.16947        0        
C4        C        0.9062500000000001        0.37037        0.16947        0        
C1        C        0.875        0.46296300000000007        0.16947        0        
C2        C        0.9062500000000001        0.518519        0.16947        0        
C3        C        0.875        0.537037        0.16947        0        
C4        C        0.9062500000000001        0.481481        0.16947        0        
C1        C        0.875        0.574075        0.16947        0        
C2        C        0.9062500000000001        0.62963        0.16947        0        
C3        C        0.875        0.648148        0.16947        0        
C4        C        0.9062500000000001        0.592592        0.16947        0        
C1        C        0.9375        0.018519        0.16947        0        
C2        C        0.9687500000000001        0.074075        0.16947        0        
C3        C        0.9375        0.092592        0.16947        0        
C4        C        0.9687500000000001        0.037037        0.16947        0        
C1        C        0.9375        0.12963        0.16947        0        
C2        C        0.9687500000000001        0.185185        0.16947        0        
C3        C        0.9375        0.203703        0.16947        0        
C4        C        0.9687500000000001        0.148148        0.16947        0        
C1        C        0.9375        0.24074099999999998        0.16947        0        
C2        C        0.9687500000000001        0.296297        0.16947        0        
C3        C        0.9375        0.314815        0.16947        0        
C4        C        0.9687500000000001        0.259259        0.16947        0        
C1        C        0.9375        0.351852        0.16947        0        
C2        C        0.9687500000000001        0.407408        0.16947        0        
C3        C        0.9375        0.425925        0.16947        0        
C4        C        0.9687500000000001        0.37037        0.16947        0        
C1        C        0.9375        0.46296300000000007        0.16947        0        
C2        C        0.9687500000000001        0.518519        0.16947        0        
C3        C        0.9375        0.537037        0.16947        0        
C4        C        0.9687500000000001        0.481481        0.16947        0        
C1        C        0.9375        0.574075        0.16947        0        
C2        C        0.9687500000000001        0.62963        0.16947        0        
C3        C        0.9375        0.648148        0.16947        0        
C4        C        0.9687500000000001        0.592592        0.16947        0        
C1        C        0.0        0.685186        0.16947        0        
C1        C        0.0625        0.685186        0.16947        0        
C1        C        0.125        0.685186        0.16947        0        
C1        C        0.1875        0.685186        0.16947        0        
C1        C        0.25        0.685186        0.16947        0        
C1        C        0.3125        0.685186        0.16947        0        
C1        C        0.375        0.685186        0.16947        0        
C1        C        0.4375        0.685186        0.16947        0        
C1        C        0.5        0.685186        0.16947        0        
C1        C        0.5625        0.685186        0.16947        0        
C1        C        0.625        0.685186        0.16947        0        
C1        C        0.6875        0.685186        0.16947        0        
C1        C        0.75        0.685186        0.16947        0        
C1        C        0.8125        0.685186        0.16947        0        
C1        C        0.875        0.685186        0.16947        0        
C1        C        0.9375        0.685186        0.16947        0        
C2        C        0.03125        0.740741        0.16947        0        
C2        C        0.09375        0.740741        0.16947        0        
C2        C        0.15625        0.740741        0.16947        0        
C2        C        0.21875        0.740741        0.16947        0        
C2        C        0.28125        0.740741        0.16947        0        
C2        C        0.34375        0.740741        0.16947        0        
C2        C        0.40625        0.740741        0.16947        0        
C2        C        0.46875        0.740741        0.16947        0        
C2        C        0.53125        0.740741        0.16947        0        
C2        C        0.59375        0.740741        0.16947        0        
C2        C        0.65625        0.740741        0.16947        0        
C2        C        0.71875        0.740741        0.16947        0        
C2        C        0.78125        0.740741        0.16947        0        
C2        C        0.84375        0.740741        0.16947        0        
C2        C        0.9062500000000001        0.740741        0.16947        0        
C2        C        0.9687500000000001        0.740741        0.16947        0        
C3        C        0.0        0.759259        0.16947        0        
C3        C        0.0625        0.759259        0.16947        0        
C3        C        0.125        0.759259        0.16947        0        
C3        C        0.1875        0.759259        0.16947        0        
C3        C        0.25        0.759259        0.16947        0        
C3        C        0.3125        0.759259        0.16947        0        
C3        C        0.375        0.759259        0.16947        0        
C3        C        0.4375        0.759259        0.16947        0        
C3        C        0.5        0.759259        0.16947        0        
C3        C        0.5625        0.759259        0.16947        0        
C3        C        0.625        0.759259        0.16947        0        
C3        C        0.6875        0.759259        0.16947        0        
C3        C        0.75        0.759259        0.16947        0        
C3        C        0.8125        0.759259        0.16947        0        
C3        C        0.875        0.759259        0.16947        0        
C3        C        0.9375        0.759259        0.16947        0        
C4        C        0.03125        0.703703        0.16947        0        
C4        C        0.09375        0.703703        0.16947        0        
C4        C        0.15625        0.703703        0.16947        0        
C4        C        0.21875        0.703703        0.16947        0        
C4        C        0.28125        0.703703        0.16947        0        
C4        C        0.34375        0.703703        0.16947        0        
C4        C        0.40625        0.703703        0.16947        0        
C4        C        0.46875        0.703703        0.16947        0        
C4        C        0.53125        0.703703        0.16947        0        
C4        C        0.59375        0.703703        0.16947        0        
C4        C        0.65625        0.703703        0.16947        0        
C4        C        0.71875        0.703703        0.16947        0        
C4        C        0.78125        0.703703        0.16947        0        
C4        C        0.84375        0.703703        0.16947        0        
C4        C        0.9062500000000001        0.703703        0.16947        0        
C4        C        0.9687500000000001        0.703703        0.16947        0        
C1        C        0.0        0.796297        0.16947        0        
C1        C        0.0625        0.796297        0.16947        0        
C1        C        0.125        0.796297        0.16947        0        
C1        C        0.1875        0.796297        0.16947        0        
C1        C        0.25        0.796297        0.16947        0        
C1        C        0.3125        0.796297        0.16947        0        
C1        C        0.375        0.796297        0.16947        0        
C1        C        0.4375        0.796297        0.16947        0        
C1        C        0.5        0.796297        0.16947        0        
C1        C        0.5625        0.796297        0.16947        0        
C1        C        0.625        0.796297        0.16947        0        
C1        C        0.6875        0.796297        0.16947        0        
C1        C        0.75        0.796297        0.16947        0        
C1        C        0.8125        0.796297        0.16947        0        
C1        C        0.875        0.796297        0.16947        0        
C1        C        0.9375        0.796297        0.16947        0        
C2        C        0.03125        0.851852        0.16947        0        
C2        C        0.09375        0.851852        0.16947        0        
C2        C        0.15625        0.851852        0.16947        0        
C2        C        0.21875        0.851852        0.16947        0        
C2        C        0.28125        0.851852        0.16947        0        
C2        C        0.34375        0.851852        0.16947        0        
C2        C        0.40625        0.851852        0.16947        0        
C2        C        0.46875        0.851852        0.16947        0        
C2        C        0.53125        0.851852        0.16947        0        
C2        C        0.59375        0.851852        0.16947        0        
C2        C        0.65625        0.851852        0.16947        0        
C2        C        0.71875        0.851852        0.16947        0        
C2        C        0.78125        0.851852        0.16947        0        
C2        C        0.84375        0.851852        0.16947        0        
C2        C        0.9062500000000001        0.851852        0.16947        0        
C2        C        0.9687500000000001        0.851852        0.16947        0        
C3        C        0.0        0.87037        0.16947        0        
C3        C        0.0625        0.87037        0.16947        0        
C3        C        0.125        0.87037        0.16947        0        
C3        C        0.1875        0.87037        0.16947        0        
C3        C        0.25        0.87037        0.16947        0        
C3        C        0.3125        0.87037        0.16947        0        
C3        C        0.375        0.87037        0.16947        0        
C3        C        0.4375        0.87037        0.16947        0        
C3        C        0.5        0.87037        0.16947        0        
C3        C        0.5625        0.87037        0.16947        0        
C3        C        0.625        0.87037        0.16947        0        
C3        C        0.6875        0.87037        0.16947        0        
C3        C        0.75        0.87037        0.16947        0        
C3        C        0.8125        0.87037        0.16947        0        
C3        C        0.875        0.87037        0.16947        0        
C3        C        0.9375        0.87037        0.16947        0        
C4        C        0.03125        0.814814        0.16947        0        
C4        C        0.09375        0.814814        0.16947        0        
C4        C        0.15625        0.814814        0.16947        0        
C4        C        0.21875        0.814814        0.16947        0        
C4        C        0.28125        0.814814        0.16947        0        
C4        C        0.34375        0.814814        0.16947        0        
C4        C        0.40625        0.814814        0.16947        0        
C4        C        0.46875        0.814814        0.16947        0        
C4        C        0.53125        0.814814        0.16947        0        
C4        C        0.59375        0.814814        0.16947        0        
C4        C        0.65625        0.814814        0.16947        0        
C4        C        0.71875        0.814814        0.16947        0        
C4        C        0.78125        0.814814        0.16947        0        
C4        C        0.84375        0.814814        0.16947        0        
C4        C        0.9062500000000001        0.814814        0.16947        0        
C4        C        0.9687500000000001        0.814814        0.16947        0        
C1        C        0.0        0.907408        0.16947        0        
C1        C        0.0625        0.907408        0.16947        0        
C1        C        0.125        0.907408        0.16947        0        
C1        C        0.1875        0.907408        0.16947        0        
C1        C        0.25        0.907408        0.16947        0        
C1        C        0.3125        0.907408        0.16947        0        
C1        C        0.375        0.907408        0.16947        0        
C1        C        0.4375        0.907408        0.16947        0        
C1        C        0.5        0.907408        0.16947        0        
C1        C        0.5625        0.907408        0.16947        0        
C1        C        0.625        0.907408        0.16947        0        
C1        C        0.6875        0.907408        0.16947        0        
C1        C        0.75        0.907408        0.16947        0        
C1        C        0.8125        0.907408        0.16947        0        
C1        C        0.875        0.907408        0.16947        0        
C1        C        0.9375        0.907408        0.16947        0        
C2        C        0.03125        0.962963        0.16947        0        
C2        C        0.09375        0.962963        0.16947        0        
C2        C        0.15625        0.962963        0.16947        0        
C2        C        0.21875        0.962963        0.16947        0        
C2        C        0.28125        0.962963        0.16947        0        
C2        C        0.34375        0.962963        0.16947        0        
C2        C        0.40625        0.962963        0.16947        0        
C2        C        0.46875        0.962963        0.16947        0        
C2        C        0.53125        0.962963        0.16947        0        
C2        C        0.59375        0.962963        0.16947        0        
C2        C        0.65625        0.962963        0.16947        0        
C2        C        0.71875        0.962963        0.16947        0        
C2        C        0.78125        0.962963        0.16947        0        
C2        C        0.84375        0.962963        0.16947        0        
C2        C        0.9062500000000001        0.962963        0.16947        0        
C2        C        0.9687500000000001        0.962963        0.16947        0        
C3        C        0.0        0.9814809999999999        0.16947        0        
C3        C        0.0625        0.9814809999999999        0.16947        0        
C3        C        0.125        0.9814809999999999        0.16947        0        
C3        C        0.1875        0.9814809999999999        0.16947        0        
C3        C        0.25        0.9814809999999999        0.16947        0        
C3        C        0.3125        0.9814809999999999        0.16947        0        
C3        C        0.375        0.9814809999999999        0.16947        0        
C3        C        0.4375        0.9814809999999999        0.16947        0        
C3        C        0.5        0.9814809999999999        0.16947        0        
C3        C        0.5625        0.9814809999999999        0.16947        0        
C3        C        0.625        0.9814809999999999        0.16947        0        
C3        C        0.6875        0.9814809999999999        0.16947        0        
C3        C        0.75        0.9814809999999999        0.16947        0        
C3        C        0.8125        0.9814809999999999        0.16947        0        
C3        C        0.875        0.9814809999999999        0.16947        0        
C3        C        0.9375        0.9814809999999999        0.16947        0        
C4        C        0.03125        0.925925        0.16947        0        
C4        C        0.09375        0.925925        0.16947        0        
C4        C        0.15625        0.925925        0.16947        0        
C4        C        0.21875        0.925925        0.16947        0        
C4        C        0.28125        0.925925        0.16947        0        
C4        C        0.34375        0.925925        0.16947        0        
C4        C        0.40625        0.925925        0.16947        0        
C4        C        0.46875        0.925925        0.16947        0        
C4        C        0.53125        0.925925        0.16947        0        
C4        C        0.59375        0.925925        0.16947        0        
C4        C        0.65625        0.925925        0.16947        0        
C4        C        0.71875        0.925925        0.16947        0        
C4        C        0.78125        0.925925        0.16947        0        
C4        C        0.84375        0.925925        0.16947        0        
C4        C        0.9062500000000001        0.925925        0.16947        0        
C4        C        0.9687500000000001        0.925925        0.16947        0        
C1        C        0.0        0.018519        0.4139955474452554        0        
C2        C        0.03125        0.074075        0.4139955474452554        0        
C3        C        0.0        0.092592        0.4139955474452554        0        
C4        C        0.03125        0.037037        0.4139955474452554        0        
C1        C        0.0        0.12963        0.4139955474452554        0        
C2        C        0.03125        0.185185        0.4139955474452554        0        
C3        C        0.0        0.203703        0.4139955474452554        0        
C4        C        0.03125        0.148148        0.4139955474452554        0        
C1        C        0.0        0.24074099999999998        0.4139955474452554        0        
C2        C        0.03125        0.296297        0.4139955474452554        0        
C3        C        0.0        0.314815        0.4139955474452554        0        
C4        C        0.03125        0.259259        0.4139955474452554        0        
C1        C        0.0        0.351852        0.4139955474452554        0        
C2        C        0.03125        0.407408        0.4139955474452554        0        
C3        C        0.0        0.425925        0.4139955474452554        0        
C4        C        0.03125        0.37037        0.4139955474452554        0        
C1        C        0.0        0.46296300000000007        0.4139955474452554        0        
C2        C        0.03125        0.518519        0.4139955474452554        0        
C3        C        0.0        0.537037        0.4139955474452554        0        
C4        C        0.03125        0.481481        0.4139955474452554        0        
C1        C        0.0        0.574075        0.4139955474452554        0        
C2        C        0.03125        0.62963        0.4139955474452554        0        
C3        C        0.0        0.648148        0.4139955474452554        0        
C4        C        0.03125        0.592592        0.4139955474452554        0        
C1        C        0.0625        0.018519        0.4139955474452554        0        
C2        C        0.09375        0.074075        0.4139955474452554        0        
C3        C        0.0625        0.092592        0.4139955474452554        0        
C4        C        0.09375        0.037037        0.4139955474452554        0        
C1        C        0.0625        0.12963        0.4139955474452554        0        
C2        C        0.09375        0.185185        0.4139955474452554        0        
C3        C        0.0625        0.203703        0.4139955474452554        0        
C4        C        0.09375        0.148148        0.4139955474452554        0        
C1        C        0.0625        0.24074099999999998        0.4139955474452554        0        
C2        C        0.09375        0.296297        0.4139955474452554        0        
C3        C        0.0625        0.314815        0.4139955474452554        0        
C4        C        0.09375        0.259259        0.4139955474452554        0        
C1        C        0.0625        0.351852        0.4139955474452554        0        
C2        C        0.09375        0.407408        0.4139955474452554        0        
C3        C        0.0625        0.425925        0.4139955474452554        0        
C4        C        0.09375        0.37037        0.4139955474452554        0        
C1        C        0.0625        0.46296300000000007        0.4139955474452554        0        
C2        C        0.09375        0.518519        0.4139955474452554        0        
C3        C        0.0625        0.537037        0.4139955474452554        0        
C4        C        0.09375        0.481481        0.4139955474452554        0        
C1        C        0.0625        0.574075        0.4139955474452554        0        
C2        C        0.09375        0.62963        0.4139955474452554        0        
C3        C        0.0625        0.648148        0.4139955474452554        0        
C4        C        0.09375        0.592592        0.4139955474452554        0        
C1        C        0.125        0.018519        0.4139955474452554        0        
C2        C        0.15625        0.074075        0.4139955474452554        0        
C3        C        0.125        0.092592        0.4139955474452554        0        
C4        C        0.15625        0.037037        0.4139955474452554        0        
C1        C        0.125        0.12963        0.4139955474452554        0        
C2        C        0.15625        0.185185        0.4139955474452554        0        
C3        C        0.125        0.203703        0.4139955474452554        0        
C4        C        0.15625        0.148148        0.4139955474452554        0        
C1        C        0.125        0.24074099999999998        0.4139955474452554        0        
C2        C        0.15625        0.296297        0.4139955474452554        0        
C3        C        0.125        0.314815        0.4139955474452554        0        
C4        C        0.15625        0.259259        0.4139955474452554        0        
C1        C        0.125        0.351852        0.4139955474452554        0        
C2        C        0.15625        0.407408        0.4139955474452554        0        
C3        C        0.125        0.425925        0.4139955474452554        0        
C4        C        0.15625        0.37037        0.4139955474452554        0        
C1        C        0.125        0.46296300000000007        0.4139955474452554        0        
C2        C        0.15625        0.518519        0.4139955474452554        0        
C3        C        0.125        0.537037        0.4139955474452554        0        
C4        C        0.15625        0.481481        0.4139955474452554        0        
C1        C        0.125        0.574075        0.4139955474452554        0        
C2        C        0.15625        0.62963        0.4139955474452554        0        
C3        C        0.125        0.648148        0.4139955474452554        0        
C4        C        0.15625        0.592592        0.4139955474452554        0        
C1        C        0.1875        0.018519        0.4139955474452554        0        
C2        C        0.21875        0.074075        0.4139955474452554        0        
C3        C        0.1875        0.092592        0.4139955474452554        0        
C4        C        0.21875        0.037037        0.4139955474452554        0        
C1        C        0.1875        0.12963        0.4139955474452554        0        
C2        C        0.21875        0.185185        0.4139955474452554        0        
C3        C        0.1875        0.203703        0.4139955474452554        0        
C4        C        0.21875        0.148148        0.4139955474452554        0        
C1        C        0.1875        0.24074099999999998        0.4139955474452554        0        
C2        C        0.21875        0.296297        0.4139955474452554        0        
C3        C        0.1875        0.314815        0.4139955474452554        0        
C4        C        0.21875        0.259259        0.4139955474452554        0        
C1        C        0.1875        0.351852        0.4139955474452554        0        
C2        C        0.21875        0.407408        0.4139955474452554        0        
C3        C        0.1875        0.425925        0.4139955474452554        0        
C4        C        0.21875        0.37037        0.4139955474452554        0        
C1        C        0.1875        0.46296300000000007        0.4139955474452554        0        
C2        C        0.21875        0.518519        0.4139955474452554        0        
C3        C        0.1875        0.537037        0.4139955474452554        0        
C4        C        0.21875        0.481481        0.4139955474452554        0        
C1        C        0.1875        0.574075        0.4139955474452554        0        
C2        C        0.21875        0.62963        0.4139955474452554        0        
C3        C        0.1875        0.648148        0.4139955474452554        0        
C4        C        0.21875        0.592592        0.4139955474452554        0        
C1        C        0.25        0.018519        0.4139955474452554        0        
C2        C        0.28125        0.074075        0.4139955474452554        0        
C3        C        0.25        0.092592        0.4139955474452554        0        
C4        C        0.28125        0.037037        0.4139955474452554        0        
C1        C        0.25        0.12963        0.4139955474452554        0        
C2        C        0.28125        0.185185        0.4139955474452554        0        
C3        C        0.25        0.203703        0.4139955474452554        0        
C4        C        0.28125        0.148148        0.4139955474452554        0        
C1        C        0.25        0.24074099999999998        0.4139955474452554        0        
C2        C        0.28125        0.296297        0.4139955474452554        0        
C3        C        0.25        0.314815        0.4139955474452554        0        
C4        C        0.28125        0.259259        0.4139955474452554        0        
C1        C        0.25        0.351852        0.4139955474452554        0        
C2        C        0.28125        0.407408        0.4139955474452554        0        
C3        C        0.25        0.425925        0.4139955474452554        0        
C4        C        0.28125        0.37037        0.4139955474452554        0        
C1        C        0.25        0.46296300000000007        0.4139955474452554        0        
C2        C        0.28125        0.518519        0.4139955474452554        0        
C3        C        0.25        0.537037        0.4139955474452554        0        
C4        C        0.28125        0.481481        0.4139955474452554        0        
C1        C        0.25        0.574075        0.4139955474452554        0        
C2        C        0.28125        0.62963        0.4139955474452554        0        
C3        C        0.25        0.648148        0.4139955474452554        0        
C4        C        0.28125        0.592592        0.4139955474452554        0        
C1        C        0.3125        0.018519        0.4139955474452554        0        
C2        C        0.34375        0.074075        0.4139955474452554        0        
C3        C        0.3125        0.092592        0.4139955474452554        0        
C4        C        0.34375        0.037037        0.4139955474452554        0        
C1        C        0.3125        0.12963        0.4139955474452554        0        
C2        C        0.34375        0.185185        0.4139955474452554        0        
C3        C        0.3125        0.203703        0.4139955474452554        0        
C4        C        0.34375        0.148148        0.4139955474452554        0        
C1        C        0.3125        0.24074099999999998        0.4139955474452554        0        
C2        C        0.34375        0.296297        0.4139955474452554        0        
C3        C        0.3125        0.314815        0.4139955474452554        0        
C4        C        0.34375        0.259259        0.4139955474452554        0        
C1        C        0.3125        0.351852        0.4139955474452554        0        
C2        C        0.34375        0.407408        0.4139955474452554        0        
C3        C        0.3125        0.425925        0.4139955474452554        0        
C4        C        0.34375        0.37037        0.4139955474452554        0        
C1        C        0.3125        0.46296300000000007        0.4139955474452554        0        
C2        C        0.34375        0.518519        0.4139955474452554        0        
C3        C        0.3125        0.537037        0.4139955474452554        0        
C4        C        0.34375        0.481481        0.4139955474452554        0        
C1        C        0.3125        0.574075        0.4139955474452554        0        
C2        C        0.34375        0.62963        0.4139955474452554        0        
C3        C        0.3125        0.648148        0.4139955474452554        0        
C4        C        0.34375        0.592592        0.4139955474452554        0        
C1        C        0.375        0.018519        0.4139955474452554        0        
C2        C        0.40625        0.074075        0.4139955474452554        0        
C3        C        0.375        0.092592        0.4139955474452554        0        
C4        C        0.40625        0.037037        0.4139955474452554        0        
C1        C        0.375        0.12963        0.4139955474452554        0        
C2        C        0.40625        0.185185        0.4139955474452554        0        
C3        C        0.375        0.203703        0.4139955474452554        0        
C4        C        0.40625        0.148148        0.4139955474452554        0        
C1        C        0.375        0.24074099999999998        0.4139955474452554        0        
C2        C        0.40625        0.296297        0.4139955474452554        0        
C3        C        0.375        0.314815        0.4139955474452554        0        
C4        C        0.40625        0.259259        0.4139955474452554        0        
C1        C        0.375        0.351852        0.4139955474452554        0        
C2        C        0.40625        0.407408        0.4139955474452554        0        
C3        C        0.375        0.425925        0.4139955474452554        0        
C4        C        0.40625        0.37037        0.4139955474452554        0        
C1        C        0.375        0.46296300000000007        0.4139955474452554        0        
C2        C        0.40625        0.518519        0.4139955474452554        0        
C3        C        0.375        0.537037        0.4139955474452554        0        
C4        C        0.40625        0.481481        0.4139955474452554        0        
C1        C        0.375        0.574075        0.4139955474452554        0        
C2        C        0.40625        0.62963        0.4139955474452554        0        
C3        C        0.375        0.648148        0.4139955474452554        0        
C4        C        0.40625        0.592592        0.4139955474452554        0        
C1        C        0.4375        0.018519        0.4139955474452554        0        
C2        C        0.46875        0.074075        0.4139955474452554        0        
C3        C        0.4375        0.092592        0.4139955474452554        0        
C4        C        0.46875        0.037037        0.4139955474452554        0        
C1        C        0.4375        0.12963        0.4139955474452554        0        
C2        C        0.46875        0.185185        0.4139955474452554        0        
C3        C        0.4375        0.203703        0.4139955474452554        0        
C4        C        0.46875        0.148148        0.4139955474452554        0        
C1        C        0.4375        0.24074099999999998        0.4139955474452554        0        
C2        C        0.46875        0.296297        0.4139955474452554        0        
C3        C        0.4375        0.314815        0.4139955474452554        0        
C4        C        0.46875        0.259259        0.4139955474452554        0        
C1        C        0.4375        0.351852        0.4139955474452554        0        
C2        C        0.46875        0.407408        0.4139955474452554        0        
C3        C        0.4375        0.425925        0.4139955474452554        0        
C4        C        0.46875        0.37037        0.4139955474452554        0        
C1        C        0.4375        0.46296300000000007        0.4139955474452554        0        
C2        C        0.46875        0.518519        0.4139955474452554        0        
C3        C        0.4375        0.537037        0.4139955474452554        0        
C4        C        0.46875        0.481481        0.4139955474452554        0        
C1        C        0.4375        0.574075        0.4139955474452554        0        
C2        C        0.46875        0.62963        0.4139955474452554        0        
C3        C        0.4375        0.648148        0.4139955474452554        0        
C4        C        0.46875        0.592592        0.4139955474452554        0        
C1        C        0.5        0.018519        0.4139955474452554        0        
C2        C        0.53125        0.074075        0.4139955474452554        0        
C3        C        0.5        0.092592        0.4139955474452554        0        
C4        C        0.53125        0.037037        0.4139955474452554        0        
C1        C        0.5        0.12963        0.4139955474452554        0        
C2        C        0.53125        0.185185        0.4139955474452554        0        
C3        C        0.5        0.203703        0.4139955474452554        0        
C4        C        0.53125        0.148148        0.4139955474452554        0        
C1        C        0.5        0.24074099999999998        0.4139955474452554        0        
C2        C        0.53125        0.296297        0.4139955474452554        0        
C3        C        0.5        0.314815        0.4139955474452554        0        
C4        C        0.53125        0.259259        0.4139955474452554        0        
C1        C        0.5        0.351852        0.4139955474452554        0        
C2        C        0.53125        0.407408        0.4139955474452554        0        
C3        C        0.5        0.425925        0.4139955474452554        0        
C4        C        0.53125        0.37037        0.4139955474452554        0        
C1        C        0.5        0.46296300000000007        0.4139955474452554        0        
C2        C        0.53125        0.518519        0.4139955474452554        0        
C3        C        0.5        0.537037        0.4139955474452554        0        
C4        C        0.53125        0.481481        0.4139955474452554        0        
C1        C        0.5        0.574075        0.4139955474452554        0        
C2        C        0.53125        0.62963        0.4139955474452554        0        
C3        C        0.5        0.648148        0.4139955474452554        0        
C4        C        0.53125        0.592592        0.4139955474452554        0        
C1        C        0.5625        0.018519        0.4139955474452554        0        
C2        C        0.59375        0.074075        0.4139955474452554        0        
C3        C        0.5625        0.092592        0.4139955474452554        0        
C4        C        0.59375        0.037037        0.4139955474452554        0        
C1        C        0.5625        0.12963        0.4139955474452554        0        
C2        C        0.59375        0.185185        0.4139955474452554        0        
C3        C        0.5625        0.203703        0.4139955474452554        0        
C4        C        0.59375        0.148148        0.4139955474452554        0        
C1        C        0.5625        0.24074099999999998        0.4139955474452554        0        
C2        C        0.59375        0.296297        0.4139955474452554        0        
C3        C        0.5625        0.314815        0.4139955474452554        0        
C4        C        0.59375        0.259259        0.4139955474452554        0        
C1        C        0.5625        0.351852        0.4139955474452554        0        
C2        C        0.59375        0.407408        0.4139955474452554        0        
C3        C        0.5625        0.425925        0.4139955474452554        0        
C4        C        0.59375        0.37037        0.4139955474452554        0        
C1        C        0.5625        0.46296300000000007        0.4139955474452554        0        
C2        C        0.59375        0.518519        0.4139955474452554        0        
C3        C        0.5625        0.537037        0.4139955474452554        0        
C4        C        0.59375        0.481481        0.4139955474452554        0        
C1        C        0.5625        0.574075        0.4139955474452554        0        
C2        C        0.59375        0.62963        0.4139955474452554        0        
C3        C        0.5625        0.648148        0.4139955474452554        0        
C4        C        0.59375        0.592592        0.4139955474452554        0        
C1        C        0.625        0.018519        0.4139955474452554        0        
C2        C        0.65625        0.074075        0.4139955474452554        0        
C3        C        0.625        0.092592        0.4139955474452554        0        
C4        C        0.65625        0.037037        0.4139955474452554        0        
C1        C        0.625        0.12963        0.4139955474452554        0        
C2        C        0.65625        0.185185        0.4139955474452554        0        
C3        C        0.625        0.203703        0.4139955474452554        0        
C4        C        0.65625        0.148148        0.4139955474452554        0        
C1        C        0.625        0.24074099999999998        0.4139955474452554        0        
C2        C        0.65625        0.296297        0.4139955474452554        0        
C3        C        0.625        0.314815        0.4139955474452554        0        
C4        C        0.65625        0.259259        0.4139955474452554        0        
C1        C        0.625        0.351852        0.4139955474452554        0        
C2        C        0.65625        0.407408        0.4139955474452554        0        
C3        C        0.625        0.425925        0.4139955474452554        0        
C4        C        0.65625        0.37037        0.4139955474452554        0        
C1        C        0.625        0.46296300000000007        0.4139955474452554        0        
C2        C        0.65625        0.518519        0.4139955474452554        0        
C3        C        0.625        0.537037        0.4139955474452554        0        
C4        C        0.65625        0.481481        0.4139955474452554        0        
C1        C        0.625        0.574075        0.4139955474452554        0        
C2        C        0.65625        0.62963        0.4139955474452554        0        
C3        C        0.625        0.648148        0.4139955474452554        0        
C4        C        0.65625        0.592592        0.4139955474452554        0        
C1        C        0.6875        0.018519        0.4139955474452554        0        
C2        C        0.71875        0.074075        0.4139955474452554        0        
C3        C        0.6875        0.092592        0.4139955474452554        0        
C4        C        0.71875        0.037037        0.4139955474452554        0        
C1        C        0.6875        0.12963        0.4139955474452554        0        
C2        C        0.71875        0.185185        0.4139955474452554        0        
C3        C        0.6875        0.203703        0.4139955474452554        0        
C4        C        0.71875        0.148148        0.4139955474452554        0        
C1        C        0.6875        0.24074099999999998        0.4139955474452554        0        
C2        C        0.71875        0.296297        0.4139955474452554        0        
C3        C        0.6875        0.314815        0.4139955474452554        0        
C4        C        0.71875        0.259259        0.4139955474452554        0        
C1        C        0.6875        0.351852        0.4139955474452554        0        
C2        C        0.71875        0.407408        0.4139955474452554        0        
C3        C        0.6875        0.425925        0.4139955474452554        0        
C4        C        0.71875        0.37037        0.4139955474452554        0        
C1        C        0.6875        0.46296300000000007        0.4139955474452554        0        
C2        C        0.71875        0.518519        0.4139955474452554        0        
C3        C        0.6875        0.537037        0.4139955474452554        0        
C4        C        0.71875        0.481481        0.4139955474452554        0        
C1        C        0.6875        0.574075        0.4139955474452554        0        
C2        C        0.71875        0.62963        0.4139955474452554        0        
C3        C        0.6875        0.648148        0.4139955474452554        0        
C4        C        0.71875        0.592592        0.4139955474452554        0        
C1        C        0.75        0.018519        0.4139955474452554        0        
C2        C        0.78125        0.074075        0.4139955474452554        0        
C3        C        0.75        0.092592        0.4139955474452554        0        
C4        C        0.78125        0.037037        0.4139955474452554        0        
C1        C        0.75        0.12963        0.4139955474452554        0        
C2        C        0.78125        0.185185        0.4139955474452554        0        
C3        C        0.75        0.203703        0.4139955474452554        0        
C4        C        0.78125        0.148148        0.4139955474452554        0        
C1        C        0.75        0.24074099999999998        0.4139955474452554        0        
C2        C        0.78125        0.296297        0.4139955474452554        0        
C3        C        0.75        0.314815        0.4139955474452554        0        
C4        C        0.78125        0.259259        0.4139955474452554        0        
C1        C        0.75        0.351852        0.4139955474452554        0        
C2        C        0.78125        0.407408        0.4139955474452554        0        
C3        C        0.75        0.425925        0.4139955474452554        0        
C4        C        0.78125        0.37037        0.4139955474452554        0        
C1        C        0.75        0.46296300000000007        0.4139955474452554        0        
C2        C        0.78125        0.518519        0.4139955474452554        0        
C3        C        0.75        0.537037        0.4139955474452554        0        
C4        C        0.78125        0.481481        0.4139955474452554        0        
C1        C        0.75        0.574075        0.4139955474452554        0        
C2        C        0.78125        0.62963        0.4139955474452554        0        
C3        C        0.75        0.648148        0.4139955474452554        0        
C4        C        0.78125        0.592592        0.4139955474452554        0        
C1        C        0.8125        0.018519        0.4139955474452554        0        
C2        C        0.84375        0.074075        0.4139955474452554        0        
C3        C        0.8125        0.092592        0.4139955474452554        0        
C4        C        0.84375        0.037037        0.4139955474452554        0        
C1        C        0.8125        0.12963        0.4139955474452554        0        
C2        C        0.84375        0.185185        0.4139955474452554        0        
C3        C        0.8125        0.203703        0.4139955474452554        0        
C4        C        0.84375        0.148148        0.4139955474452554        0        
C1        C        0.8125        0.24074099999999998        0.4139955474452554        0        
C2        C        0.84375        0.296297        0.4139955474452554        0        
C3        C        0.8125        0.314815        0.4139955474452554        0        
C4        C        0.84375        0.259259        0.4139955474452554        0        
C1        C        0.8125        0.351852        0.4139955474452554        0        
C2        C        0.84375        0.407408        0.4139955474452554        0        
C3        C        0.8125        0.425925        0.4139955474452554        0        
C4        C        0.84375        0.37037        0.4139955474452554        0        
C1        C        0.8125        0.46296300000000007        0.4139955474452554        0        
C2        C        0.84375        0.518519        0.4139955474452554        0        
C3        C        0.8125        0.537037        0.4139955474452554        0        
C4        C        0.84375        0.481481        0.4139955474452554        0        
C1        C        0.8125        0.574075        0.4139955474452554        0        
C2        C        0.84375        0.62963        0.4139955474452554        0        
C3        C        0.8125        0.648148        0.4139955474452554        0        
C4        C        0.84375        0.592592        0.4139955474452554        0        
C1        C        0.875        0.018519        0.4139955474452554        0        
C2        C        0.9062500000000001        0.074075        0.4139955474452554        0        
C3        C        0.875        0.092592        0.4139955474452554        0        
C4        C        0.9062500000000001        0.037037        0.4139955474452554        0        
C1        C        0.875        0.12963        0.4139955474452554        0        
C2        C        0.9062500000000001        0.185185        0.4139955474452554        0        
C3        C        0.875        0.203703        0.4139955474452554        0        
C4        C        0.9062500000000001        0.148148        0.4139955474452554        0        
C1        C        0.875        0.24074099999999998        0.4139955474452554        0        
C2        C        0.9062500000000001        0.296297        0.4139955474452554        0        
C3        C        0.875        0.314815        0.4139955474452554        0        
C4        C        0.9062500000000001        0.259259        0.4139955474452554        0        
C1        C        0.875        0.351852        0.4139955474452554        0        
C2        C        0.9062500000000001        0.407408        0.4139955474452554        0        
C3        C        0.875        0.425925        0.4139955474452554        0        
C4        C        0.9062500000000001        0.37037        0.4139955474452554        0        
C1        C        0.875        0.46296300000000007        0.4139955474452554        0        
C2        C        0.9062500000000001        0.518519        0.4139955474452554        0        
C3        C        0.875        0.537037        0.4139955474452554        0        
C4        C        0.9062500000000001        0.481481        0.4139955474452554        0        
C1        C        0.875        0.574075        0.4139955474452554        0        
C2        C        0.9062500000000001        0.62963        0.4139955474452554        0        
C3        C        0.875        0.648148        0.4139955474452554        0        
C4        C        0.9062500000000001        0.592592        0.4139955474452554        0        
C1        C        0.9375        0.018519        0.4139955474452554        0        
C2        C        0.9687500000000001        0.074075        0.4139955474452554        0        
C3        C        0.9375        0.092592        0.4139955474452554        0        
C4        C        0.9687500000000001        0.037037        0.4139955474452554        0        
C1        C        0.9375        0.12963        0.4139955474452554        0        
C2        C        0.9687500000000001        0.185185        0.4139955474452554        0        
C3        C        0.9375        0.203703        0.4139955474452554        0        
C4        C        0.9687500000000001        0.148148        0.4139955474452554        0        
C1        C        0.9375        0.24074099999999998        0.4139955474452554        0        
C2        C        0.9687500000000001        0.296297        0.4139955474452554        0        
C3        C        0.9375        0.314815        0.4139955474452554        0        
C4        C        0.9687500000000001        0.259259        0.4139955474452554        0        
C1        C        0.9375        0.351852        0.4139955474452554        0        
C2        C        0.9687500000000001        0.407408        0.4139955474452554        0        
C3        C        0.9375        0.425925        0.4139955474452554        0        
C4        C        0.9687500000000001        0.37037        0.4139955474452554        0        
C1        C        0.9375        0.46296300000000007        0.4139955474452554        0        
C2        C        0.9687500000000001        0.518519        0.4139955474452554        0        
C3        C        0.9375        0.537037        0.4139955474452554        0        
C4        C        0.9687500000000001        0.481481        0.4139955474452554        0        
C1        C        0.9375        0.574075        0.4139955474452554        0        
C2        C        0.9687500000000001        0.62963        0.4139955474452554        0        
C3        C        0.9375        0.648148        0.4139955474452554        0        
C4        C        0.9687500000000001        0.592592        0.4139955474452554        0        
C1        C        0.0        0.685186        0.4139955474452554        0        
C1        C        0.0625        0.685186        0.4139955474452554        0        
C1        C        0.125        0.685186        0.4139955474452554        0        
C1        C        0.1875        0.685186        0.4139955474452554        0        
C1        C        0.25        0.685186        0.4139955474452554        0        
C1        C        0.3125        0.685186        0.4139955474452554        0        
C1        C        0.375        0.685186        0.4139955474452554        0        
C1        C        0.4375        0.685186        0.4139955474452554        0        
C1        C        0.5        0.685186        0.4139955474452554        0        
C1        C        0.5625        0.685186        0.4139955474452554        0        
C1        C        0.625        0.685186        0.4139955474452554        0        
C1        C        0.6875        0.685186        0.4139955474452554        0        
C1        C        0.75        0.685186        0.4139955474452554        0        
C1        C        0.8125        0.685186        0.4139955474452554        0        
C1        C        0.875        0.685186        0.4139955474452554        0        
C1        C        0.9375        0.685186        0.4139955474452554        0        
C2        C        0.03125        0.740741        0.4139955474452554        0        
C2        C        0.09375        0.740741        0.4139955474452554        0        
C2        C        0.15625        0.740741        0.4139955474452554        0        
C2        C        0.21875        0.740741        0.4139955474452554        0        
C2        C        0.28125        0.740741        0.4139955474452554        0        
C2        C        0.34375        0.740741        0.4139955474452554        0        
C2        C        0.40625        0.740741        0.4139955474452554        0        
C2        C        0.46875        0.740741        0.4139955474452554        0        
C2        C        0.53125        0.740741        0.4139955474452554        0        
C2        C        0.59375        0.740741        0.4139955474452554        0        
C2        C        0.65625        0.740741        0.4139955474452554        0        
C2        C        0.71875        0.740741        0.4139955474452554        0        
C2        C        0.78125        0.740741        0.4139955474452554        0        
C2        C        0.84375        0.740741        0.4139955474452554        0        
C2        C        0.9062500000000001        0.740741        0.4139955474452554        0        
C2        C        0.9687500000000001        0.740741        0.4139955474452554        0        
C3        C        0.0        0.759259        0.4139955474452554        0        
C3        C        0.0625        0.759259        0.4139955474452554        0        
C3        C        0.125        0.759259        0.4139955474452554        0        
C3        C        0.1875        0.759259        0.4139955474452554        0        
C3        C        0.25        0.759259        0.4139955474452554        0        
C3        C        0.3125        0.759259        0.4139955474452554        0        
C3        C        0.375        0.759259        0.4139955474452554        0        
C3        C        0.4375        0.759259        0.4139955474452554        0        
C3        C        0.5        0.759259        0.4139955474452554        0        
C3        C        0.5625        0.759259        0.4139955474452554        0        
C3        C        0.625        0.759259        0.4139955474452554        0        
C3        C        0.6875        0.759259        0.4139955474452554        0        
C3        C        0.75        0.759259        0.4139955474452554        0        
C3        C        0.8125        0.759259        0.4139955474452554        0        
C3        C        0.875        0.759259        0.4139955474452554        0        
C3        C        0.9375        0.759259        0.4139955474452554        0        
C4        C        0.03125        0.703703        0.4139955474452554        0        
C4        C        0.09375        0.703703        0.4139955474452554        0        
C4        C        0.15625        0.703703        0.4139955474452554        0        
C4        C        0.21875        0.703703        0.4139955474452554        0        
C4        C        0.28125        0.703703        0.4139955474452554        0        
C4        C        0.34375        0.703703        0.4139955474452554        0        
C4        C        0.40625        0.703703        0.4139955474452554        0        
C4        C        0.46875        0.703703        0.4139955474452554        0        
C4        C        0.53125        0.703703        0.4139955474452554        0        
C4        C        0.59375        0.703703        0.4139955474452554        0        
C4        C        0.65625        0.703703        0.4139955474452554        0        
C4        C        0.71875        0.703703        0.4139955474452554        0        
C4        C        0.78125        0.703703        0.4139955474452554        0        
C4        C        0.84375        0.703703        0.4139955474452554        0        
C4        C        0.9062500000000001        0.703703        0.4139955474452554        0        
C4        C        0.9687500000000001        0.703703        0.4139955474452554        0        
C1        C        0.0        0.796297        0.4139955474452554        0        
C1        C        0.0625        0.796297        0.4139955474452554        0        
C1        C        0.125        0.796297        0.4139955474452554        0        
C1        C        0.1875        0.796297        0.4139955474452554        0        
C1        C        0.25        0.796297        0.4139955474452554        0        
C1        C        0.3125        0.796297        0.4139955474452554        0        
C1        C        0.375        0.796297        0.4139955474452554        0        
C1        C        0.4375        0.796297        0.4139955474452554        0        
C1        C        0.5        0.796297        0.4139955474452554        0        
C1        C        0.5625        0.796297        0.4139955474452554        0        
C1        C        0.625        0.796297        0.4139955474452554        0        
C1        C        0.6875        0.796297        0.4139955474452554        0        
C1        C        0.75        0.796297        0.4139955474452554        0        
C1        C        0.8125        0.796297        0.4139955474452554        0        
C1        C        0.875        0.796297        0.4139955474452554        0        
C1        C        0.9375        0.796297        0.4139955474452554        0        
C2        C        0.03125        0.851852        0.4139955474452554        0        
C2        C        0.09375        0.851852        0.4139955474452554        0        
C2        C        0.15625        0.851852        0.4139955474452554        0        
C2        C        0.21875        0.851852        0.4139955474452554        0        
C2        C        0.28125        0.851852        0.4139955474452554        0        
C2        C        0.34375        0.851852        0.4139955474452554        0        
C2        C        0.40625        0.851852        0.4139955474452554        0        
C2        C        0.46875        0.851852        0.4139955474452554        0        
C2        C        0.53125        0.851852        0.4139955474452554        0        
C2        C        0.59375        0.851852        0.4139955474452554        0        
C2        C        0.65625        0.851852        0.4139955474452554        0        
C2        C        0.71875        0.851852        0.4139955474452554        0        
C2        C        0.78125        0.851852        0.4139955474452554        0        
C2        C        0.84375        0.851852        0.4139955474452554        0        
C2        C        0.9062500000000001        0.851852        0.4139955474452554        0        
C2        C        0.9687500000000001        0.851852        0.4139955474452554        0        
C3        C        0.0        0.87037        0.4139955474452554        0        
C3        C        0.0625        0.87037        0.4139955474452554        0        
C3        C        0.125        0.87037        0.4139955474452554        0        
C3        C        0.1875        0.87037        0.4139955474452554        0        
C3        C        0.25        0.87037        0.4139955474452554        0        
C3        C        0.3125        0.87037        0.4139955474452554        0        
C3        C        0.375        0.87037        0.4139955474452554        0        
C3        C        0.4375        0.87037        0.4139955474452554        0        
C3        C        0.5        0.87037        0.4139955474452554        0        
C3        C        0.5625        0.87037        0.4139955474452554        0        
C3        C        0.625        0.87037        0.4139955474452554        0        
C3        C        0.6875        0.87037        0.4139955474452554        0        
C3        C        0.75        0.87037        0.4139955474452554        0        
C3        C        0.8125        0.87037        0.4139955474452554        0        
C3        C        0.875        0.87037        0.4139955474452554        0        
C3        C        0.9375        0.87037        0.4139955474452554        0        
C4        C        0.03125        0.814814        0.4139955474452554        0        
C4        C        0.09375        0.814814        0.4139955474452554        0        
C4        C        0.15625        0.814814        0.4139955474452554        0        
C4        C        0.21875        0.814814        0.4139955474452554        0        
C4        C        0.28125        0.814814        0.4139955474452554        0        
C4        C        0.34375        0.814814        0.4139955474452554        0        
C4        C        0.40625        0.814814        0.4139955474452554        0        
C4        C        0.46875        0.814814        0.4139955474452554        0        
C4        C        0.53125        0.814814        0.4139955474452554        0        
C4        C        0.59375        0.814814        0.4139955474452554        0        
C4        C        0.65625        0.814814        0.4139955474452554        0        
C4        C        0.71875        0.814814        0.4139955474452554        0        
C4        C        0.78125        0.814814        0.4139955474452554        0        
C4        C        0.84375        0.814814        0.4139955474452554        0        
C4        C        0.9062500000000001        0.814814        0.4139955474452554        0        
C4        C        0.9687500000000001        0.814814        0.4139955474452554        0        
C1        C        0.0        0.907408        0.4139955474452554        0        
C1        C        0.0625        0.907408        0.4139955474452554        0        
C1        C        0.125        0.907408        0.4139955474452554        0        
C1        C        0.1875        0.907408        0.4139955474452554        0        
C1        C        0.25        0.907408        0.4139955474452554        0        
C1        C        0.3125        0.907408        0.4139955474452554        0        
C1        C        0.375        0.907408        0.4139955474452554        0        
C1        C        0.4375        0.907408        0.4139955474452554        0        
C1        C        0.5        0.907408        0.4139955474452554        0        
C1        C        0.5625        0.907408        0.4139955474452554        0        
C1        C        0.625        0.907408        0.4139955474452554        0        
C1        C        0.6875        0.907408        0.4139955474452554        0        
C1        C        0.75        0.907408        0.4139955474452554        0        
C1        C        0.8125        0.907408        0.4139955474452554        0        
C1        C        0.875        0.907408        0.4139955474452554        0        
C1        C        0.9375        0.907408        0.4139955474452554        0        
C2        C        0.03125        0.962963        0.4139955474452554        0        
C2        C        0.09375        0.962963        0.4139955474452554        0        
C2        C        0.15625        0.962963        0.4139955474452554        0        
C2        C        0.21875        0.962963        0.4139955474452554        0        
C2        C        0.28125        0.962963        0.4139955474452554        0        
C2        C        0.34375        0.962963        0.4139955474452554        0        
C2        C        0.40625        0.962963        0.4139955474452554        0        
C2        C        0.46875        0.962963        0.4139955474452554        0        
C2        C        0.53125        0.962963        0.4139955474452554        0        
C2        C        0.59375        0.962963        0.4139955474452554        0        
C2        C        0.65625        0.962963        0.4139955474452554        0        
C2        C        0.71875        0.962963        0.4139955474452554        0        
C2        C        0.78125        0.962963        0.4139955474452554        0        
C2        C        0.84375        0.962963        0.4139955474452554        0        
C2        C        0.9062500000000001        0.962963        0.4139955474452554        0        
C2        C        0.9687500000000001        0.962963        0.4139955474452554        0        
C3        C        0.0        0.9814809999999999        0.4139955474452554        0        
C3        C        0.0625        0.9814809999999999        0.4139955474452554        0        
C3        C        0.125        0.9814809999999999        0.4139955474452554        0        
C3        C        0.1875        0.9814809999999999        0.4139955474452554        0        
C3        C        0.25        0.9814809999999999        0.4139955474452554        0        
C3        C        0.3125        0.9814809999999999        0.4139955474452554        0        
C3        C        0.375        0.9814809999999999        0.4139955474452554        0        
C3        C        0.4375        0.9814809999999999        0.4139955474452554        0        
C3        C        0.5        0.9814809999999999        0.4139955474452554        0        
C3        C        0.5625        0.9814809999999999        0.4139955474452554        0        
C3        C        0.625        0.9814809999999999        0.4139955474452554        0        
C3        C        0.6875        0.9814809999999999        0.4139955474452554        0        
C3        C        0.75        0.9814809999999999        0.4139955474452554        0        
C3        C        0.8125        0.9814809999999999        0.4139955474452554        0        
C3        C        0.875        0.9814809999999999        0.4139955474452554        0        
C3        C        0.9375        0.9814809999999999        0.4139955474452554        0        
C4        C        0.03125        0.925925        0.4139955474452554        0        
C4        C        0.09375        0.925925        0.4139955474452554        0        
C4        C        0.15625        0.925925        0.4139955474452554        0        
C4        C        0.21875        0.925925        0.4139955474452554        0        
C4        C        0.28125        0.925925        0.4139955474452554        0        
C4        C        0.34375        0.925925        0.4139955474452554        0        
C4        C        0.40625        0.925925        0.4139955474452554        0        
C4        C        0.46875        0.925925        0.4139955474452554        0        
C4        C        0.53125        0.925925        0.4139955474452554        0        
C4        C        0.59375        0.925925        0.4139955474452554        0        
C4        C        0.65625        0.925925        0.4139955474452554        0        
C4        C        0.71875        0.925925        0.4139955474452554        0        
C4        C        0.78125        0.925925        0.4139955474452554        0        
C4        C        0.84375        0.925925        0.4139955474452554        0        
C4        C        0.9062500000000001        0.925925        0.4139955474452554        0        
C4        C        0.9687500000000001        0.925925        0.4139955474452554        0        
C1        C        0.0        0.018519        0.658521094890511        0        
C2        C        0.03125        0.074075        0.658521094890511        0        
C3        C        0.0        0.092592        0.658521094890511        0        
C4        C        0.03125        0.037037        0.658521094890511        0        
C1        C        0.0        0.12963        0.658521094890511        0        
C2        C        0.03125        0.185185        0.658521094890511        0        
C3        C        0.0        0.203703        0.658521094890511        0        
C4        C        0.03125        0.148148        0.658521094890511        0        
C1        C        0.0        0.24074099999999998        0.658521094890511        0        
C2        C        0.03125        0.296297        0.658521094890511        0        
C3        C        0.0        0.314815        0.658521094890511        0        
C4        C        0.03125        0.259259        0.658521094890511        0        
C1        C        0.0        0.351852        0.658521094890511        0        
C2        C        0.03125        0.407408        0.658521094890511        0        
C3        C        0.0        0.425925        0.658521094890511        0        
C4        C        0.03125        0.37037        0.658521094890511        0        
C1        C        0.0        0.46296300000000007        0.658521094890511        0        
C2        C        0.03125        0.518519        0.658521094890511        0        
C3        C        0.0        0.537037        0.658521094890511        0        
C4        C        0.03125        0.481481        0.658521094890511        0        
C1        C        0.0        0.574075        0.658521094890511        0        
C2        C        0.03125        0.62963        0.658521094890511        0        
C3        C        0.0        0.648148        0.658521094890511        0        
C4        C        0.03125        0.592592        0.658521094890511        0        
C1        C        0.0625        0.018519        0.658521094890511        0        
C2        C        0.09375        0.074075        0.658521094890511        0        
C3        C        0.0625        0.092592        0.658521094890511        0        
C4        C        0.09375        0.037037        0.658521094890511        0        
C1        C        0.0625        0.12963        0.658521094890511        0        
C2        C        0.09375        0.185185        0.658521094890511        0        
C3        C        0.0625        0.203703        0.658521094890511        0        
C4        C        0.09375        0.148148        0.658521094890511        0        
C1        C        0.0625        0.24074099999999998        0.658521094890511        0        
C2        C        0.09375        0.296297        0.658521094890511        0        
C3        C        0.0625        0.314815        0.658521094890511        0        
C4        C        0.09375        0.259259        0.658521094890511        0        
C1        C        0.0625        0.351852        0.658521094890511        0        
C2        C        0.09375        0.407408        0.658521094890511        0        
C3        C        0.0625        0.425925        0.658521094890511        0        
C4        C        0.09375        0.37037        0.658521094890511        0        
C1        C        0.0625        0.46296300000000007        0.658521094890511        0        
C2        C        0.09375        0.518519        0.658521094890511        0        
C3        C        0.0625        0.537037        0.658521094890511        0        
C4        C        0.09375        0.481481        0.658521094890511        0        
C1        C        0.0625        0.574075        0.658521094890511        0        
C2        C        0.09375        0.62963        0.658521094890511        0        
C3        C        0.0625        0.648148        0.658521094890511        0        
C4        C        0.09375        0.592592        0.658521094890511        0        
C1        C        0.125        0.018519        0.658521094890511        0        
C2        C        0.15625        0.074075        0.658521094890511        0        
C3        C        0.125        0.092592        0.658521094890511        0        
C4        C        0.15625        0.037037        0.658521094890511        0        
C1        C        0.125        0.12963        0.658521094890511        0        
C2        C        0.15625        0.185185        0.658521094890511        0        
C3        C        0.125        0.203703        0.658521094890511        0        
C4        C        0.15625        0.148148        0.658521094890511        0        
C1        C        0.125        0.24074099999999998        0.658521094890511        0        
C2        C        0.15625        0.296297        0.658521094890511        0        
C3        C        0.125        0.314815        0.658521094890511        0        
C4        C        0.15625        0.259259        0.658521094890511        0        
C1        C        0.125        0.351852        0.658521094890511        0        
C2        C        0.15625        0.407408        0.658521094890511        0        
C3        C        0.125        0.425925        0.658521094890511        0        
C4        C        0.15625        0.37037        0.658521094890511        0        
C1        C        0.125        0.46296300000000007        0.658521094890511        0        
C2        C        0.15625        0.518519        0.658521094890511        0        
C3        C        0.125        0.537037        0.658521094890511        0        
C4        C        0.15625        0.481481        0.658521094890511        0        
C1        C        0.125        0.574075        0.658521094890511        0        
C2        C        0.15625        0.62963        0.658521094890511        0        
C3        C        0.125        0.648148        0.658521094890511        0        
C4        C        0.15625        0.592592        0.658521094890511        0        
C1        C        0.1875        0.018519        0.658521094890511        0        
C2        C        0.21875        0.074075        0.658521094890511        0        
C3        C        0.1875        0.092592        0.658521094890511        0        
C4        C        0.21875        0.037037        0.658521094890511        0        
C1        C        0.1875        0.12963        0.658521094890511        0        
C2        C        0.21875        0.185185        0.658521094890511        0        
C3        C        0.1875        0.203703        0.658521094890511        0        
C4        C        0.21875        0.148148        0.658521094890511        0        
C1        C        0.1875        0.24074099999999998        0.658521094890511        0        
C2        C        0.21875        0.296297        0.658521094890511        0        
C3        C        0.1875        0.314815        0.658521094890511        0        
C4        C        0.21875        0.259259        0.658521094890511        0        
C1        C        0.1875        0.351852        0.658521094890511        0        
C2        C        0.21875        0.407408        0.658521094890511        0        
C3        C        0.1875        0.425925        0.658521094890511        0        
C4        C        0.21875        0.37037        0.658521094890511        0        
C1        C        0.1875        0.46296300000000007        0.658521094890511        0        
C2        C        0.21875        0.518519        0.658521094890511        0        
C3        C        0.1875        0.537037        0.658521094890511        0        
C4        C        0.21875        0.481481        0.658521094890511        0        
C1        C        0.1875        0.574075        0.658521094890511        0        
C2        C        0.21875        0.62963        0.658521094890511        0        
C3        C        0.1875        0.648148        0.658521094890511        0        
C4        C        0.21875        0.592592        0.658521094890511        0        
C1        C        0.25        0.018519        0.658521094890511        0        
C2        C        0.28125        0.074075        0.658521094890511        0        
C3        C        0.25        0.092592        0.658521094890511        0        
C4        C        0.28125        0.037037        0.658521094890511        0        
C1        C        0.25        0.12963        0.658521094890511        0        
C2        C        0.28125        0.185185        0.658521094890511        0        
C3        C        0.25        0.203703        0.658521094890511        0        
C4        C        0.28125        0.148148        0.658521094890511        0        
C1        C        0.25        0.24074099999999998        0.658521094890511        0        
C2        C        0.28125        0.296297        0.658521094890511        0        
C3        C        0.25        0.314815        0.658521094890511        0        
C4        C        0.28125        0.259259        0.658521094890511        0        
C1        C        0.25        0.351852        0.658521094890511        0        
C2        C        0.28125        0.407408        0.658521094890511        0        
C3        C        0.25        0.425925        0.658521094890511        0        
C4        C        0.28125        0.37037        0.658521094890511        0        
C1        C        0.25        0.46296300000000007        0.658521094890511        0        
C2        C        0.28125        0.518519        0.658521094890511        0        
C3        C        0.25        0.537037        0.658521094890511        0        
C4        C        0.28125        0.481481        0.658521094890511        0        
C1        C        0.25        0.574075        0.658521094890511        0        
C2        C        0.28125        0.62963        0.658521094890511        0        
C3        C        0.25        0.648148        0.658521094890511        0        
C4        C        0.28125        0.592592        0.658521094890511        0        
C1        C        0.3125        0.018519        0.658521094890511        0        
C2        C        0.34375        0.074075        0.658521094890511        0        
C3        C        0.3125        0.092592        0.658521094890511        0        
C4        C        0.34375        0.037037        0.658521094890511        0        
C1        C        0.3125        0.12963        0.658521094890511        0        
C2        C        0.34375        0.185185        0.658521094890511        0        
C3        C        0.3125        0.203703        0.658521094890511        0        
C4        C        0.34375        0.148148        0.658521094890511        0        
C1        C        0.3125        0.24074099999999998        0.658521094890511        0        
C2        C        0.34375        0.296297        0.658521094890511        0        
C3        C        0.3125        0.314815        0.658521094890511        0        
C4        C        0.34375        0.259259        0.658521094890511        0        
C1        C        0.3125        0.351852        0.658521094890511        0        
C2        C        0.34375        0.407408        0.658521094890511        0        
C3        C        0.3125        0.425925        0.658521094890511        0        
C4        C        0.34375        0.37037        0.658521094890511        0        
C1        C        0.3125        0.46296300000000007        0.658521094890511        0        
C2        C        0.34375        0.518519        0.658521094890511        0        
C3        C        0.3125        0.537037        0.658521094890511        0        
C4        C        0.34375        0.481481        0.658521094890511        0        
C1        C        0.3125        0.574075        0.658521094890511        0        
C2        C        0.34375        0.62963        0.658521094890511        0        
C3        C        0.3125        0.648148        0.658521094890511        0        
C4        C        0.34375        0.592592        0.658521094890511        0        
C1        C        0.375        0.018519        0.658521094890511        0        
C2        C        0.40625        0.074075        0.658521094890511        0        
C3        C        0.375        0.092592        0.658521094890511        0        
C4        C        0.40625        0.037037        0.658521094890511        0        
C1        C        0.375        0.12963        0.658521094890511        0        
C2        C        0.40625        0.185185        0.658521094890511        0        
C3        C        0.375        0.203703        0.658521094890511        0        
C4        C        0.40625        0.148148        0.658521094890511        0        
C1        C        0.375        0.24074099999999998        0.658521094890511        0        
C2        C        0.40625        0.296297        0.658521094890511        0        
C3        C        0.375        0.314815        0.658521094890511        0        
C4        C        0.40625        0.259259        0.658521094890511        0        
C1        C        0.375        0.351852        0.658521094890511        0        
C2        C        0.40625        0.407408        0.658521094890511        0        
C3        C        0.375        0.425925        0.658521094890511        0        
C4        C        0.40625        0.37037        0.658521094890511        0        
C1        C        0.375        0.46296300000000007        0.658521094890511        0        
C2        C        0.40625        0.518519        0.658521094890511        0        
C3        C        0.375        0.537037        0.658521094890511        0        
C4        C        0.40625        0.481481        0.658521094890511        0        
C1        C        0.375        0.574075        0.658521094890511        0        
C2        C        0.40625        0.62963        0.658521094890511        0        
C3        C        0.375        0.648148        0.658521094890511        0        
C4        C        0.40625        0.592592        0.658521094890511        0        
C1        C        0.4375        0.018519        0.658521094890511        0        
C2        C        0.46875        0.074075        0.658521094890511        0        
C3        C        0.4375        0.092592        0.658521094890511        0        
C4        C        0.46875        0.037037        0.658521094890511        0        
C1        C        0.4375        0.12963        0.658521094890511        0        
C2        C        0.46875        0.185185        0.658521094890511        0        
C3        C        0.4375        0.203703        0.658521094890511        0        
C4        C        0.46875        0.148148        0.658521094890511        0        
C1        C        0.4375        0.24074099999999998        0.658521094890511        0        
C2        C        0.46875        0.296297        0.658521094890511        0        
C3        C        0.4375        0.314815        0.658521094890511        0        
C4        C        0.46875        0.259259        0.658521094890511        0        
C1        C        0.4375        0.351852        0.658521094890511        0        
C2        C        0.46875        0.407408        0.658521094890511        0        
C3        C        0.4375        0.425925        0.658521094890511        0        
C4        C        0.46875        0.37037        0.658521094890511        0        
C1        C        0.4375        0.46296300000000007        0.658521094890511        0        
C2        C        0.46875        0.518519        0.658521094890511        0        
C3        C        0.4375        0.537037        0.658521094890511        0        
C4        C        0.46875        0.481481        0.658521094890511        0        
C1        C        0.4375        0.574075        0.658521094890511        0        
C2        C        0.46875        0.62963        0.658521094890511        0        
C3        C        0.4375        0.648148        0.658521094890511        0        
C4        C        0.46875        0.592592        0.658521094890511        0        
C1        C        0.5        0.018519        0.658521094890511        0        
C2        C        0.53125        0.074075        0.658521094890511        0        
C3        C        0.5        0.092592        0.658521094890511        0        
C4        C        0.53125        0.037037        0.658521094890511        0        
C1        C        0.5        0.12963        0.658521094890511        0        
C2        C        0.53125        0.185185        0.658521094890511        0        
C3        C        0.5        0.203703        0.658521094890511        0        
C4        C        0.53125        0.148148        0.658521094890511        0        
C1        C        0.5        0.24074099999999998        0.658521094890511        0        
C2        C        0.53125        0.296297        0.658521094890511        0        
C3        C        0.5        0.314815        0.658521094890511        0        
C4        C        0.53125        0.259259        0.658521094890511        0        
C1        C        0.5        0.351852        0.658521094890511        0        
C2        C        0.53125        0.407408        0.658521094890511        0        
C3        C        0.5        0.425925        0.658521094890511        0        
C4        C        0.53125        0.37037        0.658521094890511        0        
C1        C        0.5        0.46296300000000007        0.658521094890511        0        
C2        C        0.53125        0.518519        0.658521094890511        0        
C3        C        0.5        0.537037        0.658521094890511        0        
C4        C        0.53125        0.481481        0.658521094890511        0        
C1        C        0.5        0.574075        0.658521094890511        0        
C2        C        0.53125        0.62963        0.658521094890511        0        
C3        C        0.5        0.648148        0.658521094890511        0        
C4        C        0.53125        0.592592        0.658521094890511        0        
C1        C        0.5625        0.018519        0.658521094890511        0        
C2        C        0.59375        0.074075        0.658521094890511        0        
C3        C        0.5625        0.092592        0.658521094890511        0        
C4        C        0.59375        0.037037        0.658521094890511        0        
C1        C        0.5625        0.12963        0.658521094890511        0        
C2        C        0.59375        0.185185        0.658521094890511        0        
C3        C        0.5625        0.203703        0.658521094890511        0        
C4        C        0.59375        0.148148        0.658521094890511        0        
C1        C        0.5625        0.24074099999999998        0.658521094890511        0        
C2        C        0.59375        0.296297        0.658521094890511        0        
C3        C        0.5625        0.314815        0.658521094890511        0        
C4        C        0.59375        0.259259        0.658521094890511        0        
C1        C        0.5625        0.351852        0.658521094890511        0        
C2        C        0.59375        0.407408        0.658521094890511        0        
C3        C        0.5625        0.425925        0.658521094890511        0        
C4        C        0.59375        0.37037        0.658521094890511        0        
C1        C        0.5625        0.46296300000000007        0.658521094890511        0        
C2        C        0.59375        0.518519        0.658521094890511        0        
C3        C        0.5625        0.537037        0.658521094890511        0        
C4        C        0.59375        0.481481        0.658521094890511        0        
C1        C        0.5625        0.574075        0.658521094890511        0        
C2        C        0.59375        0.62963        0.658521094890511        0        
C3        C        0.5625        0.648148        0.658521094890511        0        
C4        C        0.59375        0.592592        0.658521094890511        0        
C1        C        0.625        0.018519        0.658521094890511        0        
C2        C        0.65625        0.074075        0.658521094890511        0        
C3        C        0.625        0.092592        0.658521094890511        0        
C4        C        0.65625        0.037037        0.658521094890511        0        
C1        C        0.625        0.12963        0.658521094890511        0        
C2        C        0.65625        0.185185        0.658521094890511        0        
C3        C        0.625        0.203703        0.658521094890511        0        
C4        C        0.65625        0.148148        0.658521094890511        0        
C1        C        0.625        0.24074099999999998        0.658521094890511        0        
C2        C        0.65625        0.296297        0.658521094890511        0        
C3        C        0.625        0.314815        0.658521094890511        0        
C4        C        0.65625        0.259259        0.658521094890511        0        
C1        C        0.625        0.351852        0.658521094890511        0        
C2        C        0.65625        0.407408        0.658521094890511        0        
C3        C        0.625        0.425925        0.658521094890511        0        
C4        C        0.65625        0.37037        0.658521094890511        0        
C1        C        0.625        0.46296300000000007        0.658521094890511        0        
C2        C        0.65625        0.518519        0.658521094890511        0        
C3        C        0.625        0.537037        0.658521094890511        0        
C4        C        0.65625        0.481481        0.658521094890511        0        
C1        C        0.625        0.574075        0.658521094890511        0        
C2        C        0.65625        0.62963        0.658521094890511        0        
C3        C        0.625        0.648148        0.658521094890511        0        
C4        C        0.65625        0.592592        0.658521094890511        0        
C1        C        0.6875        0.018519        0.658521094890511        0        
C2        C        0.71875        0.074075        0.658521094890511        0        
C3        C        0.6875        0.092592        0.658521094890511        0        
C4        C        0.71875        0.037037        0.658521094890511        0        
C1        C        0.6875        0.12963        0.658521094890511        0        
C2        C        0.71875        0.185185        0.658521094890511        0        
C3        C        0.6875        0.203703        0.658521094890511        0        
C4        C        0.71875        0.148148        0.658521094890511        0        
C1        C        0.6875        0.24074099999999998        0.658521094890511        0        
C2        C        0.71875        0.296297        0.658521094890511        0        
C3        C        0.6875        0.314815        0.658521094890511        0        
C4        C        0.71875        0.259259        0.658521094890511        0        
C1        C        0.6875        0.351852        0.658521094890511        0        
C2        C        0.71875        0.407408        0.658521094890511        0        
C3        C        0.6875        0.425925        0.658521094890511        0        
C4        C        0.71875        0.37037        0.658521094890511        0        
C1        C        0.6875        0.46296300000000007        0.658521094890511        0        
C2        C        0.71875        0.518519        0.658521094890511        0        
C3        C        0.6875        0.537037        0.658521094890511        0        
C4        C        0.71875        0.481481        0.658521094890511        0        
C1        C        0.6875        0.574075        0.658521094890511        0        
C2        C        0.71875        0.62963        0.658521094890511        0        
C3        C        0.6875        0.648148        0.658521094890511        0        
C4        C        0.71875        0.592592        0.658521094890511        0        
C1        C        0.75        0.018519        0.658521094890511        0        
C2        C        0.78125        0.074075        0.658521094890511        0        
C3        C        0.75        0.092592        0.658521094890511        0        
C4        C        0.78125        0.037037        0.658521094890511        0        
C1        C        0.75        0.12963        0.658521094890511        0        
C2        C        0.78125        0.185185        0.658521094890511        0        
C3        C        0.75        0.203703        0.658521094890511        0        
C4        C        0.78125        0.148148        0.658521094890511        0        
C1        C        0.75        0.24074099999999998        0.658521094890511        0        
C2        C        0.78125        0.296297        0.658521094890511        0        
C3        C        0.75        0.314815        0.658521094890511        0        
C4        C        0.78125        0.259259        0.658521094890511        0        
C1        C        0.75        0.351852        0.658521094890511        0        
C2        C        0.78125        0.407408        0.658521094890511        0        
C3        C        0.75        0.425925        0.658521094890511        0        
C4        C        0.78125        0.37037        0.658521094890511        0        
C1        C        0.75        0.46296300000000007        0.658521094890511        0        
C2        C        0.78125        0.518519        0.658521094890511        0        
C3        C        0.75        0.537037        0.658521094890511        0        
C4        C        0.78125        0.481481        0.658521094890511        0        
C1        C        0.75        0.574075        0.658521094890511        0        
C2        C        0.78125        0.62963        0.658521094890511        0        
C3        C        0.75        0.648148        0.658521094890511        0        
C4        C        0.78125        0.592592        0.658521094890511        0        
C1        C        0.8125        0.018519        0.658521094890511        0        
C2        C        0.84375        0.074075        0.658521094890511        0        
C3        C        0.8125        0.092592        0.658521094890511        0        
C4        C        0.84375        0.037037        0.658521094890511        0        
C1        C        0.8125        0.12963        0.658521094890511        0        
C2        C        0.84375        0.185185        0.658521094890511        0        
C3        C        0.8125        0.203703        0.658521094890511        0        
C4        C        0.84375        0.148148        0.658521094890511        0        
C1        C        0.8125        0.24074099999999998        0.658521094890511        0        
C2        C        0.84375        0.296297        0.658521094890511        0        
C3        C        0.8125        0.314815        0.658521094890511        0        
C4        C        0.84375        0.259259        0.658521094890511        0        
C1        C        0.8125        0.351852        0.658521094890511        0        
C2        C        0.84375        0.407408        0.658521094890511        0        
C3        C        0.8125        0.425925        0.658521094890511        0        
C4        C        0.84375        0.37037        0.658521094890511        0        
C1        C        0.8125        0.46296300000000007        0.658521094890511        0        
C2        C        0.84375        0.518519        0.658521094890511        0        
C3        C        0.8125        0.537037        0.658521094890511        0        
C4        C        0.84375        0.481481        0.658521094890511        0        
C1        C        0.8125        0.574075        0.658521094890511        0        
C2        C        0.84375        0.62963        0.658521094890511        0        
C3        C        0.8125        0.648148        0.658521094890511        0        
C4        C        0.84375        0.592592        0.658521094890511        0        
C1        C        0.875        0.018519        0.658521094890511        0        
C2        C        0.9062500000000001        0.074075        0.658521094890511        0        
C3        C        0.875        0.092592        0.658521094890511        0        
C4        C        0.9062500000000001        0.037037        0.658521094890511        0        
C1        C        0.875        0.12963        0.658521094890511        0        
C2        C        0.9062500000000001        0.185185        0.658521094890511        0        
C3        C        0.875        0.203703        0.658521094890511        0        
C4        C        0.9062500000000001        0.148148        0.658521094890511        0        
C1        C        0.875        0.24074099999999998        0.658521094890511        0        
C2        C        0.9062500000000001        0.296297        0.658521094890511        0        
C3        C        0.875        0.314815        0.658521094890511        0        
C4        C        0.9062500000000001        0.259259        0.658521094890511        0        
C1        C        0.875        0.351852        0.658521094890511        0        
C2        C        0.9062500000000001        0.407408        0.658521094890511        0        
C3        C        0.875        0.425925        0.658521094890511        0        
C4        C        0.9062500000000001        0.37037        0.658521094890511        0        
C1        C        0.875        0.46296300000000007        0.658521094890511        0        
C2        C        0.9062500000000001        0.518519        0.658521094890511        0        
C3        C        0.875        0.537037        0.658521094890511        0        
C4        C        0.9062500000000001        0.481481        0.658521094890511        0        
C1        C        0.875        0.574075        0.658521094890511        0        
C2        C        0.9062500000000001        0.62963        0.658521094890511        0        
C3        C        0.875        0.648148        0.658521094890511        0        
C4        C        0.9062500000000001        0.592592        0.658521094890511        0        
C1        C        0.9375        0.018519        0.658521094890511        0        
C2        C        0.9687500000000001        0.074075        0.658521094890511        0        
C3        C        0.9375        0.092592        0.658521094890511        0        
C4        C        0.9687500000000001        0.037037        0.658521094890511        0        
C1        C        0.9375        0.12963        0.658521094890511        0        
C2        C        0.9687500000000001        0.185185        0.658521094890511        0        
C3        C        0.9375        0.203703        0.658521094890511        0        
C4        C        0.9687500000000001        0.148148        0.658521094890511        0        
C1        C        0.9375        0.24074099999999998        0.658521094890511        0        
C2        C        0.9687500000000001        0.296297        0.658521094890511        0        
C3        C        0.9375        0.314815        0.658521094890511        0        
C4        C        0.9687500000000001        0.259259        0.658521094890511        0        
C1        C        0.9375        0.351852        0.658521094890511        0        
C2        C        0.9687500000000001        0.407408        0.658521094890511        0        
C3        C        0.9375        0.425925        0.658521094890511        0        
C4        C        0.9687500000000001        0.37037        0.658521094890511        0        
C1        C        0.9375        0.46296300000000007        0.658521094890511        0        
C2        C        0.9687500000000001        0.518519        0.658521094890511        0        
C3        C        0.9375        0.537037        0.658521094890511        0        
C4        C        0.9687500000000001        0.481481        0.658521094890511        0        
C1        C        0.9375        0.574075        0.658521094890511        0        
C2        C        0.9687500000000001        0.62963        0.658521094890511        0        
C3        C        0.9375        0.648148        0.658521094890511        0        
C4        C        0.9687500000000001        0.592592        0.658521094890511        0        
C1        C        0.0        0.685186        0.658521094890511        0        
C1        C        0.0625        0.685186        0.658521094890511        0        
C1        C        0.125        0.685186        0.658521094890511        0        
C1        C        0.1875        0.685186        0.658521094890511        0        
C1        C        0.25        0.685186        0.658521094890511        0        
C1        C        0.3125        0.685186        0.658521094890511        0        
C1        C        0.375        0.685186        0.658521094890511        0        
C1        C        0.4375        0.685186        0.658521094890511        0        
C1        C        0.5        0.685186        0.658521094890511        0        
C1        C        0.5625        0.685186        0.658521094890511        0        
C1        C        0.625        0.685186        0.658521094890511        0        
C1        C        0.6875        0.685186        0.658521094890511        0        
C1        C        0.75        0.685186        0.658521094890511        0        
C1        C        0.8125        0.685186        0.658521094890511        0        
C1        C        0.875        0.685186        0.658521094890511        0        
C1        C        0.9375        0.685186        0.658521094890511        0        
C2        C        0.03125        0.740741        0.658521094890511        0        
C2        C        0.09375        0.740741        0.658521094890511        0        
C2        C        0.15625        0.740741        0.658521094890511        0        
C2        C        0.21875        0.740741        0.658521094890511        0        
C2        C        0.28125        0.740741        0.658521094890511        0        
C2        C        0.34375        0.740741        0.658521094890511        0        
C2        C        0.40625        0.740741        0.658521094890511        0        
C2        C        0.46875        0.740741        0.658521094890511        0        
C2        C        0.53125        0.740741        0.658521094890511        0        
C2        C        0.59375        0.740741        0.658521094890511        0        
C2        C        0.65625        0.740741        0.658521094890511        0        
C2        C        0.71875        0.740741        0.658521094890511        0        
C2        C        0.78125        0.740741        0.658521094890511        0        
C2        C        0.84375        0.740741        0.658521094890511        0        
C2        C        0.9062500000000001        0.740741        0.658521094890511        0        
C2        C        0.9687500000000001        0.740741        0.658521094890511        0        
C3        C        0.0        0.759259        0.658521094890511        0        
C3        C        0.0625        0.759259        0.658521094890511        0        
C3        C        0.125        0.759259        0.658521094890511        0        
C3        C        0.1875        0.759259        0.658521094890511        0        
C3        C        0.25        0.759259        0.658521094890511        0        
C3        C        0.3125        0.759259        0.658521094890511        0        
C3        C        0.375        0.759259        0.658521094890511        0        
C3        C        0.4375        0.759259        0.658521094890511        0        
C3        C        0.5        0.759259        0.658521094890511        0        
C3        C        0.5625        0.759259        0.658521094890511        0        
C3        C        0.625        0.759259        0.658521094890511        0        
C3        C        0.6875        0.759259        0.658521094890511        0        
C3        C        0.75        0.759259        0.658521094890511        0        
C3        C        0.8125        0.759259        0.658521094890511        0        
C3        C        0.875        0.759259        0.658521094890511        0        
C3        C        0.9375        0.759259        0.658521094890511        0        
C4        C        0.03125        0.703703        0.658521094890511        0        
C4        C        0.09375        0.703703        0.658521094890511        0        
C4        C        0.15625        0.703703        0.658521094890511        0        
C4        C        0.21875        0.703703        0.658521094890511        0        
C4        C        0.28125        0.703703        0.658521094890511        0        
C4        C        0.34375        0.703703        0.658521094890511        0        
C4        C        0.40625        0.703703        0.658521094890511        0        
C4        C        0.46875        0.703703        0.658521094890511        0        
C4        C        0.53125        0.703703        0.658521094890511        0        
C4        C        0.59375        0.703703        0.658521094890511        0        
C4        C        0.65625        0.703703        0.658521094890511        0        
C4        C        0.71875        0.703703        0.658521094890511        0        
C4        C        0.78125        0.703703        0.658521094890511        0        
C4        C        0.84375        0.703703        0.658521094890511        0        
C4        C        0.9062500000000001        0.703703        0.658521094890511        0        
C4        C        0.9687500000000001        0.703703        0.658521094890511        0        
C1        C        0.0        0.796297        0.658521094890511        0        
C1        C        0.0625        0.796297        0.658521094890511        0        
C1        C        0.125        0.796297        0.658521094890511        0        
C1        C        0.1875        0.796297        0.658521094890511        0        
C1        C        0.25        0.796297        0.658521094890511        0        
C1        C        0.3125        0.796297        0.658521094890511        0        
C1        C        0.375        0.796297        0.658521094890511        0        
C1        C        0.4375        0.796297        0.658521094890511        0        
C1        C        0.5        0.796297        0.658521094890511        0        
C1        C        0.5625        0.796297        0.658521094890511        0        
C1        C        0.625        0.796297        0.658521094890511        0        
C1        C        0.6875        0.796297        0.658521094890511        0        
C1        C        0.75        0.796297        0.658521094890511        0        
C1        C        0.8125        0.796297        0.658521094890511        0        
C1        C        0.875        0.796297        0.658521094890511        0        
C1        C        0.9375        0.796297        0.658521094890511        0        
C2        C        0.03125        0.851852        0.658521094890511        0        
C2        C        0.09375        0.851852        0.658521094890511        0        
C2        C        0.15625        0.851852        0.658521094890511        0        
C2        C        0.21875        0.851852        0.658521094890511        0        
C2        C        0.28125        0.851852        0.658521094890511        0        
C2        C        0.34375        0.851852        0.658521094890511        0        
C2        C        0.40625        0.851852        0.658521094890511        0        
C2        C        0.46875        0.851852        0.658521094890511        0        
C2        C        0.53125        0.851852        0.658521094890511        0        
C2        C        0.59375        0.851852        0.658521094890511        0        
C2        C        0.65625        0.851852        0.658521094890511        0        
C2        C        0.71875        0.851852        0.658521094890511        0        
C2        C        0.78125        0.851852        0.658521094890511        0        
C2        C        0.84375        0.851852        0.658521094890511        0        
C2        C        0.9062500000000001        0.851852        0.658521094890511        0        
C2        C        0.9687500000000001        0.851852        0.658521094890511        0        
C3        C        0.0        0.87037        0.658521094890511        0        
C3        C        0.0625        0.87037        0.658521094890511        0        
C3        C        0.125        0.87037        0.658521094890511        0        
C3        C        0.1875        0.87037        0.658521094890511        0        
C3        C        0.25        0.87037        0.658521094890511        0        
C3        C        0.3125        0.87037        0.658521094890511        0        
C3        C        0.375        0.87037        0.658521094890511        0        
C3        C        0.4375        0.87037        0.658521094890511        0        
C3        C        0.5        0.87037        0.658521094890511        0        
C3        C        0.5625        0.87037        0.658521094890511        0        
C3        C        0.625        0.87037        0.658521094890511        0        
C3        C        0.6875        0.87037        0.658521094890511        0        
C3        C        0.75        0.87037        0.658521094890511        0        
C3        C        0.8125        0.87037        0.658521094890511        0        
C3        C        0.875        0.87037        0.658521094890511        0        
C3        C        0.9375        0.87037        0.658521094890511        0        
C4        C        0.03125        0.814814        0.658521094890511        0        
C4        C        0.09375        0.814814        0.658521094890511        0        
C4        C        0.15625        0.814814        0.658521094890511        0        
C4        C        0.21875        0.814814        0.658521094890511        0        
C4        C        0.28125        0.814814        0.658521094890511        0        
C4        C        0.34375        0.814814        0.658521094890511        0        
C4        C        0.40625        0.814814        0.658521094890511        0        
C4        C        0.46875        0.814814        0.658521094890511        0        
C4        C        0.53125        0.814814        0.658521094890511        0        
C4        C        0.59375        0.814814        0.658521094890511        0        
C4        C        0.65625        0.814814        0.658521094890511        0        
C4        C        0.71875        0.814814        0.658521094890511        0        
C4        C        0.78125        0.814814        0.658521094890511        0        
C4        C        0.84375        0.814814        0.658521094890511        0        
C4        C        0.9062500000000001        0.814814        0.658521094890511        0        
C4        C        0.9687500000000001        0.814814        0.658521094890511        0        
C1        C        0.0        0.907408        0.658521094890511        0        
C1        C        0.0625        0.907408        0.658521094890511        0        
C1        C        0.125        0.907408        0.658521094890511        0        
C1        C        0.1875        0.907408        0.658521094890511        0        
C1        C        0.25        0.907408        0.658521094890511        0        
C1        C        0.3125        0.907408        0.658521094890511        0        
C1        C        0.375        0.907408        0.658521094890511        0        
C1        C        0.4375        0.907408        0.658521094890511        0        
C1        C        0.5        0.907408        0.658521094890511        0        
C1        C        0.5625        0.907408        0.658521094890511        0        
C1        C        0.625        0.907408        0.658521094890511        0        
C1        C        0.6875        0.907408        0.658521094890511        0        
C1        C        0.75        0.907408        0.658521094890511        0        
C1        C        0.8125        0.907408        0.658521094890511        0        
C1        C        0.875        0.907408        0.658521094890511        0        
C1        C        0.9375        0.907408        0.658521094890511        0        
C2        C        0.03125        0.962963        0.658521094890511        0        
C2        C        0.09375        0.962963        0.658521094890511        0        
C2        C        0.15625        0.962963        0.658521094890511        0        
C2        C        0.21875        0.962963        0.658521094890511        0        
C2        C        0.28125        0.962963        0.658521094890511        0        
C2        C        0.34375        0.962963        0.658521094890511        0        
C2        C        0.40625        0.962963        0.658521094890511        0        
C2        C        0.46875        0.962963        0.658521094890511        0        
C2        C        0.53125        0.962963        0.658521094890511        0        
C2        C        0.59375        0.962963        0.658521094890511        0        
C2        C        0.65625        0.962963        0.658521094890511        0        
C2        C        0.71875        0.962963        0.658521094890511        0        
C2        C        0.78125        0.962963        0.658521094890511        0        
C2        C        0.84375        0.962963        0.658521094890511        0        
C2        C        0.9062500000000001        0.962963        0.658521094890511        0        
C2        C        0.9687500000000001        0.962963        0.658521094890511        0        
C3        C        0.0        0.9814809999999999        0.658521094890511        0        
C3        C        0.0625        0.9814809999999999        0.658521094890511        0        
C3        C        0.125        0.9814809999999999        0.658521094890511        0        
C3        C        0.1875        0.9814809999999999        0.658521094890511        0        
C3        C        0.25        0.9814809999999999        0.658521094890511        0        
C3        C        0.3125        0.9814809999999999        0.658521094890511        0        
C3        C        0.375        0.9814809999999999        0.658521094890511        0        
C3        C        0.4375        0.9814809999999999        0.658521094890511        0        
C3        C        0.5        0.9814809999999999        0.658521094890511        0        
C3        C        0.5625        0.9814809999999999        0.658521094890511        0        
C3        C        0.625        0.9814809999999999        0.658521094890511        0        
C3        C        0.6875        0.9814809999999999        0.658521094890511        0        
C3        C        0.75        0.9814809999999999        0.658521094890511        0        
C3        C        0.8125        0.9814809999999999        0.658521094890511        0        
C3        C        0.875        0.9814809999999999        0.658521094890511        0        
C3        C        0.9375        0.9814809999999999        0.658521094890511        0        
C4        C        0.03125        0.925925        0.658521094890511        0        
C4        C        0.09375        0.925925        0.658521094890511        0        
C4        C        0.15625        0.925925        0.658521094890511        0        
C4        C        0.21875        0.925925        0.658521094890511        0        
C4        C        0.28125        0.925925        0.658521094890511        0        
C4        C        0.34375        0.925925        0.658521094890511        0        
C4        C        0.40625        0.925925        0.658521094890511        0        
C4        C        0.46875        0.925925        0.658521094890511        0        
C4        C        0.53125        0.925925        0.658521094890511        0        
C4        C        0.59375        0.925925        0.658521094890511        0        
C4        C        0.65625        0.925925        0.658521094890511        0        
C4        C        0.71875        0.925925        0.658521094890511        0        
C4        C        0.78125        0.925925        0.658521094890511        0        
C4        C        0.84375        0.925925        0.658521094890511        0        
C4        C        0.9062500000000001        0.925925        0.658521094890511        0        
C4        C        0.9687500000000001        0.925925        0.658521094890511        0        
C_COOH        C        0.0        0.018519        0.05852109489051095        0.55        
O1_COOH        O        -0.010852624873949675        0.04590001212507653        0.026764963503649628        -0.5        
O2_COOH        O        0.01056662712111717        -0.008140444022520205        0.0        -0.58        
H_COOH        H        0.017984591064428415        -0.02685585739341154        0.042610218978102195        0.45        
C_COOH        C        0.0        0.203703        0.05852109489051095        0.55        
O1_COOH        O        -0.005239861810224803        0.23277038729146535        0.026764963503649628        -0.5        
O2_COOH        O        0.005101776441912265        0.17540162162735634        0.0        -0.58        
H_COOH        H        0.008683316062753804        0.15553354055400018        0.042610218978102195        0.45        
C_COOH        C        0.0        0.351852        0.05852109489051095        0.55        
O1_COOH        O        0.022982334596347888        0.3696616617841888        0.026764963503649628        -0.5        
O2_COOH        O        -0.022376684246709654        0.3345116738196992        0.0        -0.58        
H_COOH        H        -0.038085522555314937        0.32233845024548385        0.042610218978102195        0.45        
C_COOH        C        0.0        0.537037        0.05852109489051095        0.55        
O1_COOH        O        -0.02877831206497387        0.5380397690851945        0.026764963503649628        -0.5        
O2_COOH        O        0.028019921106427845        0.5360606567526378        0.0        -0.58        
H_COOH        H        0.04769041407258186        0.5353752460797512        0.042610218978102195        0.45        
O_CO        O        0.25        0.018519        0.0648714598540146        -0.5        
O_OH        O        0.25        0.203703        0.0648714598540146        -0.64        
H_OH        H        0.2547521321803091        0.2266434451039096        0.04033138686131387        0.44        
O_CO        O        0.25        0.351852        0.0648714598540146        -0.5        
O_OH        O        0.25        0.537037        0.0648714598540146        -0.64        
H_OH        H        0.2727462609317216        0.5392224706829896        0.04033138686131387        0.44        
O_OH        O        0.5        0.018519        0.0648714598540146        -0.64        
H_OH        H        0.4956025277134979        0.041533864247573556        0.04033138686131387        0.44        
O_CO        O        0.5        0.203703        0.0648714598540146        -0.5        
O_CO        O        0.5        0.351852        0.0648714598540146        -0.5        
C_COOH        C        0.5        0.537037        0.05852109489051095        0.55        
O1_COOH        O        0.5020545377243306        0.5665226027270646        0.026764963503649628        -0.5        
O2_COOH        O        0.4979996052299401        0.5083284273664654        0.0        -0.58        
H_COOH        H        0.4965952918093371        0.4881744885344709        0.042610218978102195        0.45        
O_CO        O        0.75        0.018519        0.0648714598540146        -0.5        
C_COOH        C        0.75        0.203703        0.05852109489051095        0.55        
O1_COOH        O        0.7372826246936086        0.23022465031902262        0.026764963503649628        -0.5        
O2_COOH        O        0.7623822360380762        0.17788027113829752        0.0        -0.58        
H_COOH        H        0.7710747903806493        0.15975224699034604        0.042610218978102195        0.45        
C_COOH        C        0.75        0.351852        0.05852109489051095        0.55        
O1_COOH        O        0.7281040861586032        0.37105016328043877        0.026764963503649628        -0.5        
O2_COOH        O        0.7713188937907097        0.33315976331524566        0.0        -0.58        
H_COOH        H        0.7862851440083144        0.3200374740399629        0.042610218978102195        0.45        
O_OH        O        0.75        0.537037        0.0648714598540146        -0.64        
H_OH        H        0.7720600131569345        0.5431347295468439        0.04033138686131387        0.44        
O_CO        O        0.0        0.685186        0.0648714598540146        -0.5        
O_OH        O        0.25        0.685186        0.0648714598540146        -0.64        
H_OH        H        0.2314428692773407        0.6988655608219172        0.04033138686131387        0.44        
O_OH        O        0.5        0.685186        0.0648714598540146        -0.64        
H_OH        H        0.5202976237123532        0.6959497268590561        0.04033138686131387        0.44        
O_OH        O        0.75        0.685186        0.0648714598540146        -0.64        
H_OH        H        0.7357673200899328        0.7035319388470079        0.04033138686131387        0.44        
C_COOH        C        0.0        0.87037        0.05852109489051095        0.55        
O1_COOH        O        0.008379055798215861        0.8986517174802664        0.026764963503649628        -0.5        
O2_COOH        O        -0.00815824367608123        0.8428335867884746        0.0        -0.58        
H_COOH        H        -0.013885478747050524        0.8235025251365501        0.042610218978102195        0.45        
O_CO        O        0.25        0.87037        0.0648714598540146        -0.5        
C_COOH        C        0.5        0.87037        0.05852109489051095        0.55        
O1_COOH        O        0.5276079609392521        0.8787697195674724        0.026764963503649628        -0.5        
O2_COOH        O        0.4731195879146539        0.8621916371041736        0.0        -0.58        
H_COOH        H        0.45424905095476126        0.8564502779759315        0.042610218978102195        0.45        
C_COOH        C        0.75        0.87037        0.05852109489051095        0.55        
O1_COOH        O        0.7696524840950023        0.8919756922294342        0.026764963503649628        -0.5        
O2_COOH        O        0.7308654151555503        0.8493336796504362        0.0        -0.58        
H_COOH        H        0.7174325894468911        0.8345658011150846        0.042610218978102195        0.45        
C_COOH        C        0.0        0.018519        0.76947        0.55        
O1_COOH        O        0.012234527878241138        0.045278960291921015        0.8012261313868613        -0.5        
O2_COOH        O        -0.01191211302277676        -0.007535758684174744        0.827991094890511        -0.58        
H_COOH        H        -0.020274632479436075        -0.025826671977086484        0.7853808759124088        0.45        
C_COOH        C        0.0        0.203703        0.76947        0.55        
O1_COOH        O        0.02849806739762753        0.20793648221299438        0.8012261313868613        -0.5        
O2_COOH        O        -0.027747061688828484        0.19958108217015122        0.827991094890511        -0.58        
H_COOH        H        -0.04722600239349501        0.19668742107199397        0.7853808759124088        0.45        
C_COOH        C        0.0        0.351852        0.76947        0.55        
O1_COOH        O        0.026080900220991608        0.3643804395666209        0.8012261313868613        -0.5        
O2_COOH        O        -0.025393593791285654        0.33965372070374394        0.827991094890511        -0.58        
H_COOH        H        -0.043220357334251835        0.33109030733135075        0.7853808759124088        0.45        
C_COOH        C        0.0        0.537037        0.76947        0.55        
O1_COOH        O        0.010242556110619933        0.5646645805567289        0.8012261313868613        -0.5        
O2_COOH        O        -0.00997263541724651        0.510137485330298        0.827991094890511        -0.58        
H_COOH        H        -0.016973606407987975        0.49125353800962035        0.7853808759124088        0.45        
O_CO        O        0.25        0.018519        0.7631196350364964        -0.5        
O_OH        O        0.25        0.203703        0.7631196350364964        -0.64        
H_OH        H        0.260589239845435        0.22448488278686982        0.7876597080291972        0.44        
O_CO        O        0.25        0.351852        0.7631196350364964        -0.5        
O_OH        O        0.25        0.537037        0.7631196350364964        -0.64        
H_OH        H        0.23233791829615968        0.5519130276735267        0.7876597080291972        0.44        
O_OH        O        0.5        0.018519        0.7631196350364964        -0.64        
H_OH        H        0.5218324937641944        0.025426034663653573        0.7876597080291972        0.44        
O_CO        O        0.5        0.203703        0.7631196350364964        -0.5        
O_CO        O        0.5        0.351852        0.7631196350364964        -0.5        
C_COOH        C        0.5        0.537037        0.76947        0.55        
O1_COOH        O        0.5269597865808372        0.5474212032858257        0.8012261313868613        -0.5        
O2_COOH        O        0.47375068102202555        0.5269264502163634        0.827991094890511        -0.58        
H_COOH        H        0.45532318287307        0.5198286608383145        0.7853808759124088        0.45        
O_CO        O        0.75        0.018519        0.7631196350364964        -0.5        
C_COOH        C        0.75        0.203703        0.76947        0.55        
O1_COOH        O        0.7544062069929969        0.23291580643921445        0.8012261313868613        -0.5        
O2_COOH        O        0.7457099091828729        0.17526003469070434        0.827991094890511        -0.58        
H_COOH        H        0.7426981875965797        0.15529255701908753        0.7853808759124088        0.45        
C_COOH        C        0.75        0.351852        0.76947        0.55        
O1_COOH        O        0.7233691551734331        0.36309523416586603        0.8012261313868613        -0.5        
O2_COOH        O        0.7759290457811846        0.340905057260711        0.827991094890511        -0.58        
H_COOH        H        0.7941317063354598        0.3332201048535939        0.7853808759124088        0.45        
O_OH        O        0.75        0.537037        0.7631196350364964        -0.64        
H_OH        H        0.7559492828911434        0.5596812506386669        0.7876597080291972        0.44        
O_CO        O        0.0        0.685186        0.7631196350364964        -0.5        
O_OH        O        0.25        0.685186        0.7631196350364964        -0.64        
H_OH        H        0.22984540499683437        0.6962293506130524        0.7876597080291972        0.44        
O_OH        O        0.5        0.685186        0.7631196350364964        -0.64        
H_OH        H        0.5190796655556581        0.6980857483656895        0.7876597080291972        0.44        
O_OH        O        0.75        0.685186        0.7631196350364964        -0.64        
H_OH        H        0.7657558868890295        0.7021692818969142        0.7876597080291972        0.44        
C_COOH        C        0.0        0.87037        0.76947        0.55        
O1_COOH        O        0.020391681916686395        0.8912412585906427        0.8012261313868613        -0.5        
O2_COOH        O        -0.01985430268609616        0.8500487588590562        0.827991094890511        -0.58        
H_COOH        H        -0.03379238337702128        0.83578287890143        0.7853808759124088        0.45        
O_CO        O        0.25        0.87037        0.7631196350364964        -0.5        
C_COOH        C        0.5        0.87037        0.76947        0.55        
O1_COOH        O        0.48262709694887185        0.8939445400457551        0.8012261313868613        -0.5        
O2_COOH        O        0.516915077290954        0.8474167166138507        0.827991094890511        -0.58        
H_COOH        H        0.5287897684298001        0.8313030952484496        0.7853808759124088        0.45        
C_COOH        C        0.75        0.87037        0.76947        0.55        
O1_COOH        O        0.7767283114147738        0.8813667803116627        0.8012261313868613        -0.5        
O2_COOH        O        0.7239760561544013        0.8596630163498876        0.827991094890511        -0.58        
H_COOH        H        0.7057067754372258        0.8521465195768133        0.7853808759124088        0.45        
