data_graphite_ortho

_audit_creation_method RASPA-1.0
_audit_creation_date 2012-2-3
_audit_author_name 'David Dubbeldam'

_cell_length_a    39.36    
_cell_length_b    38.34    
_cell_length_c    34.6    
_cell_angle_alpha 90
_cell_angle_beta  90
_cell_angle_gamma 90
_cell_volume      52213.56      

_symmetry_cell_setting          triclinic
_symmetry_space_group_name_Hall 'P 1'
_symmetry_space_group_name_H-M  'P 1'
_symmetry_Int_Tables_number     1

_symmetry_equiv_pos_as_xyz 'x,y,z'

loop_
_atom_site_label
_atom_site_type_symbol
_atom_site_fract_x
_atom_site_fract_y
_atom_site_fract_z
_atom_site_charge
C_FG        C        0.0        0.018519        0.06710228323699421        0.08        
C2        C        0.03125        0.074075        0.06710228323699421        0        
C3        C        0.0        0.092592        0.06710228323699421        0        
C4        C        0.03125        0.037037        0.06710228323699421        0        
C1        C        0.0        0.12963        0.06710228323699421        0        
C2        C        0.03125        0.185185        0.06710228323699421        0        
C_FG        C        0.0        0.203703        0.06710228323699421        0.08        
C4        C        0.03125        0.148148        0.06710228323699421        0        
C1        C        0.0        0.24074099999999998        0.06710228323699421        0        
C2        C        0.03125        0.296297        0.06710228323699421        0        
C3        C        0.0        0.314815        0.06710228323699421        0        
C4        C        0.03125        0.259259        0.06710228323699421        0        
C_FG        C        0.0        0.351852        0.06710228323699421        0.08        
C2        C        0.03125        0.407408        0.06710228323699421        0        
C3        C        0.0        0.42592500000000005        0.06710228323699421        0        
C4        C        0.03125        0.37037        0.06710228323699421        0        
C1        C        0.0        0.46296300000000007        0.06710228323699421        0        
C2        C        0.03125        0.518519        0.06710228323699421        0        
C_FG        C        0.0        0.537037        0.06710228323699421        0.08        
C4        C        0.03125        0.481481        0.06710228323699421        0        
C1        C        0.0        0.574075        0.06710228323699421        0        
C2        C        0.03125        0.62963        0.06710228323699421        0        
C3        C        0.0        0.648148        0.06710228323699421        0        
C4        C        0.03125        0.592592        0.06710228323699421        0        
C1        C        0.0625        0.018519        0.06710228323699421        0        
C2        C        0.09375        0.074075        0.06710228323699421        0        
C3        C        0.0625        0.092592        0.06710228323699421        0        
C4        C        0.09375        0.037037        0.06710228323699421        0        
C1        C        0.0625        0.12963        0.06710228323699421        0        
C2        C        0.09375        0.185185        0.06710228323699421        0        
C3        C        0.0625        0.203703        0.06710228323699421        0        
C4        C        0.09375        0.148148        0.06710228323699421        0        
C1        C        0.0625        0.24074099999999998        0.06710228323699421        0        
C2        C        0.09375        0.296297        0.06710228323699421        0        
C3        C        0.0625        0.314815        0.06710228323699421        0        
C4        C        0.09375        0.259259        0.06710228323699421        0        
C1        C        0.0625        0.351852        0.06710228323699421        0        
C2        C        0.09375        0.407408        0.06710228323699421        0        
C3        C        0.0625        0.42592500000000005        0.06710228323699421        0        
C4        C        0.09375        0.37037        0.06710228323699421        0        
C1        C        0.0625        0.46296300000000007        0.06710228323699421        0        
C2        C        0.09375        0.518519        0.06710228323699421        0        
C3        C        0.0625        0.537037        0.06710228323699421        0        
C4        C        0.09375        0.481481        0.06710228323699421        0        
C1        C        0.0625        0.574075        0.06710228323699421        0        
C2        C        0.09375        0.62963        0.06710228323699421        0        
C3        C        0.0625        0.648148        0.06710228323699421        0        
C4        C        0.09375        0.592592        0.06710228323699421        0        
C1        C        0.125        0.018519        0.06710228323699421        0        
C2        C        0.15625        0.074075        0.06710228323699421        0        
C3        C        0.125        0.092592        0.06710228323699421        0        
C4        C        0.15625        0.037037        0.06710228323699421        0        
C1        C        0.125        0.12963        0.06710228323699421        0        
C2        C        0.15625        0.185185        0.06710228323699421        0        
C3        C        0.125        0.203703        0.06710228323699421        0        
C4        C        0.15625        0.148148        0.06710228323699421        0        
C1        C        0.125        0.24074099999999998        0.06710228323699421        0        
C2        C        0.15625        0.296297        0.06710228323699421        0        
C3        C        0.125        0.314815        0.06710228323699421        0        
C4        C        0.15625        0.259259        0.06710228323699421        0        
C1        C        0.125        0.351852        0.06710228323699421        0        
C2        C        0.15625        0.407408        0.06710228323699421        0        
C3        C        0.125        0.42592500000000005        0.06710228323699421        0        
C4        C        0.15625        0.37037        0.06710228323699421        0        
C1        C        0.125        0.46296300000000007        0.06710228323699421        0        
C2        C        0.15625        0.518519        0.06710228323699421        0        
C3        C        0.125        0.537037        0.06710228323699421        0        
C4        C        0.15625        0.481481        0.06710228323699421        0        
C1        C        0.125        0.574075        0.06710228323699421        0        
C2        C        0.15625        0.62963        0.06710228323699421        0        
C3        C        0.125        0.648148        0.06710228323699421        0        
C4        C        0.15625        0.592592        0.06710228323699421        0        
C_FG        C        0.1875        0.018519        0.06710228323699421        0.08        
C2        C        0.21875        0.074075        0.06710228323699421        0        
C3        C        0.1875        0.092592        0.06710228323699421        0        
C4        C        0.21875        0.037037        0.06710228323699421        0        
C1        C        0.1875        0.12963        0.06710228323699421        0        
C2        C        0.21875        0.185185        0.06710228323699421        0        
C_FG        C        0.1875        0.203703        0.06710228323699421        0.08        
C4        C        0.21875        0.148148        0.06710228323699421        0        
C1        C        0.1875        0.24074099999999998        0.06710228323699421        0        
C2        C        0.21875        0.296297        0.06710228323699421        0        
C3        C        0.1875        0.314815        0.06710228323699421        0        
C4        C        0.21875        0.259259        0.06710228323699421        0        
C_FG        C        0.1875        0.351852        0.06710228323699421        0.08        
C2        C        0.21875        0.407408        0.06710228323699421        0        
C3        C        0.1875        0.42592500000000005        0.06710228323699421        0        
C4        C        0.21875        0.37037        0.06710228323699421        0        
C1        C        0.1875        0.46296300000000007        0.06710228323699421        0        
C2        C        0.21875        0.518519        0.06710228323699421        0        
C_FG        C        0.1875        0.537037        0.06710228323699421        0.08        
C4        C        0.21875        0.481481        0.06710228323699421        0        
C1        C        0.1875        0.574075        0.06710228323699421        0        
C2        C        0.21875        0.62963        0.06710228323699421        0        
C3        C        0.1875        0.648148        0.06710228323699421        0        
C4        C        0.21875        0.592592        0.06710228323699421        0        
C1        C        0.25        0.018519        0.06710228323699421        0        
C2        C        0.28125        0.074075        0.06710228323699421        0        
C3        C        0.25        0.092592        0.06710228323699421        0        
C4        C        0.28125        0.037037        0.06710228323699421        0        
C1        C        0.25        0.12963        0.06710228323699421        0        
C2        C        0.28125        0.185185        0.06710228323699421        0        
C3        C        0.25        0.203703        0.06710228323699421        0        
C4        C        0.28125        0.148148        0.06710228323699421        0        
C1        C        0.25        0.24074099999999998        0.06710228323699421        0        
C2        C        0.28125        0.296297        0.06710228323699421        0        
C3        C        0.25        0.314815        0.06710228323699421        0        
C4        C        0.28125        0.259259        0.06710228323699421        0        
C1        C        0.25        0.351852        0.06710228323699421        0        
C2        C        0.28125        0.407408        0.06710228323699421        0        
C3        C        0.25        0.42592500000000005        0.06710228323699421        0        
C4        C        0.28125        0.37037        0.06710228323699421        0        
C1        C        0.25        0.46296300000000007        0.06710228323699421        0        
C2        C        0.28125        0.518519        0.06710228323699421        0        
C3        C        0.25        0.537037        0.06710228323699421        0        
C4        C        0.28125        0.481481        0.06710228323699421        0        
C1        C        0.25        0.574075        0.06710228323699421        0        
C2        C        0.28125        0.62963        0.06710228323699421        0        
C3        C        0.25        0.648148        0.06710228323699421        0        
C4        C        0.28125        0.592592        0.06710228323699421        0        
C1        C        0.3125        0.018519        0.06710228323699421        0        
C2        C        0.34375        0.074075        0.06710228323699421        0        
C3        C        0.3125        0.092592        0.06710228323699421        0        
C4        C        0.34375        0.037037        0.06710228323699421        0        
C1        C        0.3125        0.12963        0.06710228323699421        0        
C2        C        0.34375        0.185185        0.06710228323699421        0        
C3        C        0.3125        0.203703        0.06710228323699421        0        
C4        C        0.34375        0.148148        0.06710228323699421        0        
C1        C        0.3125        0.24074099999999998        0.06710228323699421        0        
C2        C        0.34375        0.296297        0.06710228323699421        0        
C3        C        0.3125        0.314815        0.06710228323699421        0        
C4        C        0.34375        0.259259        0.06710228323699421        0        
C1        C        0.3125        0.351852        0.06710228323699421        0        
C2        C        0.34375        0.407408        0.06710228323699421        0        
C3        C        0.3125        0.42592500000000005        0.06710228323699421        0        
C4        C        0.34375        0.37037        0.06710228323699421        0        
C1        C        0.3125        0.46296300000000007        0.06710228323699421        0        
C2        C        0.34375        0.518519        0.06710228323699421        0        
C3        C        0.3125        0.537037        0.06710228323699421        0        
C4        C        0.34375        0.481481        0.06710228323699421        0        
C1        C        0.3125        0.574075        0.06710228323699421        0        
C2        C        0.34375        0.62963        0.06710228323699421        0        
C3        C        0.3125        0.648148        0.06710228323699421        0        
C4        C        0.34375        0.592592        0.06710228323699421        0        
C_FG        C        0.375        0.018519        0.06710228323699421        0.08        
C2        C        0.40625        0.074075        0.06710228323699421        0        
C3        C        0.375        0.092592        0.06710228323699421        0        
C4        C        0.40625        0.037037        0.06710228323699421        0        
C1        C        0.375        0.12963        0.06710228323699421        0        
C2        C        0.40625        0.185185        0.06710228323699421        0        
C_FG        C        0.375        0.203703        0.06710228323699421        0.08        
C4        C        0.40625        0.148148        0.06710228323699421        0        
C1        C        0.375        0.24074099999999998        0.06710228323699421        0        
C2        C        0.40625        0.296297        0.06710228323699421        0        
C3        C        0.375        0.314815        0.06710228323699421        0        
C4        C        0.40625        0.259259        0.06710228323699421        0        
C_FG        C        0.375        0.351852        0.06710228323699421        0.08        
C2        C        0.40625        0.407408        0.06710228323699421        0        
C3        C        0.375        0.42592500000000005        0.06710228323699421        0        
C4        C        0.40625        0.37037        0.06710228323699421        0        
C1        C        0.375        0.46296300000000007        0.06710228323699421        0        
C2        C        0.40625        0.518519        0.06710228323699421        0        
C_FG        C        0.375        0.537037        0.06710228323699421        0.08        
C4        C        0.40625        0.481481        0.06710228323699421        0        
C1        C        0.375        0.574075        0.06710228323699421        0        
C2        C        0.40625        0.62963        0.06710228323699421        0        
C3        C        0.375        0.648148        0.06710228323699421        0        
C4        C        0.40625        0.592592        0.06710228323699421        0        
C1        C        0.4375        0.018519        0.06710228323699421        0        
C2        C        0.46875        0.074075        0.06710228323699421        0        
C3        C        0.4375        0.092592        0.06710228323699421        0        
C4        C        0.46875        0.037037        0.06710228323699421        0        
C1        C        0.4375        0.12963        0.06710228323699421        0        
C2        C        0.46875        0.185185        0.06710228323699421        0        
C3        C        0.4375        0.203703        0.06710228323699421        0        
C4        C        0.46875        0.148148        0.06710228323699421        0        
C1        C        0.4375        0.24074099999999998        0.06710228323699421        0        
C2        C        0.46875        0.296297        0.06710228323699421        0        
C3        C        0.4375        0.314815        0.06710228323699421        0        
C4        C        0.46875        0.259259        0.06710228323699421        0        
C1        C        0.4375        0.351852        0.06710228323699421        0        
C2        C        0.46875        0.407408        0.06710228323699421        0        
C3        C        0.4375        0.42592500000000005        0.06710228323699421        0        
C4        C        0.46875        0.37037        0.06710228323699421        0        
C1        C        0.4375        0.46296300000000007        0.06710228323699421        0        
C2        C        0.46875        0.518519        0.06710228323699421        0        
C3        C        0.4375        0.537037        0.06710228323699421        0        
C4        C        0.46875        0.481481        0.06710228323699421        0        
C1        C        0.4375        0.574075        0.06710228323699421        0        
C2        C        0.46875        0.62963        0.06710228323699421        0        
C3        C        0.4375        0.648148        0.06710228323699421        0        
C4        C        0.46875        0.592592        0.06710228323699421        0        
C1        C        0.5        0.018519        0.06710228323699421        0        
C2        C        0.53125        0.074075        0.06710228323699421        0        
C3        C        0.5        0.092592        0.06710228323699421        0        
C4        C        0.53125        0.037037        0.06710228323699421        0        
C1        C        0.5        0.12963        0.06710228323699421        0        
C2        C        0.53125        0.185185        0.06710228323699421        0        
C3        C        0.5        0.203703        0.06710228323699421        0        
C4        C        0.53125        0.148148        0.06710228323699421        0        
C1        C        0.5        0.24074099999999998        0.06710228323699421        0        
C2        C        0.53125        0.296297        0.06710228323699421        0        
C3        C        0.5        0.314815        0.06710228323699421        0        
C4        C        0.53125        0.259259        0.06710228323699421        0        
C1        C        0.5        0.351852        0.06710228323699421        0        
C2        C        0.53125        0.407408        0.06710228323699421        0        
C3        C        0.5        0.42592500000000005        0.06710228323699421        0        
C4        C        0.53125        0.37037        0.06710228323699421        0        
C1        C        0.5        0.46296300000000007        0.06710228323699421        0        
C2        C        0.53125        0.518519        0.06710228323699421        0        
C3        C        0.5        0.537037        0.06710228323699421        0        
C4        C        0.53125        0.481481        0.06710228323699421        0        
C1        C        0.5        0.574075        0.06710228323699421        0        
C2        C        0.53125        0.62963        0.06710228323699421        0        
C3        C        0.5        0.648148        0.06710228323699421        0        
C4        C        0.53125        0.592592        0.06710228323699421        0        
C_FG        C        0.5625        0.018519        0.06710228323699421        0.08        
C2        C        0.59375        0.074075        0.06710228323699421        0        
C3        C        0.5625        0.092592        0.06710228323699421        0        
C4        C        0.59375        0.037037        0.06710228323699421        0        
C1        C        0.5625        0.12963        0.06710228323699421        0        
C2        C        0.59375        0.185185        0.06710228323699421        0        
C_FG        C        0.5625        0.203703        0.06710228323699421        0.08        
C4        C        0.59375        0.148148        0.06710228323699421        0        
C1        C        0.5625        0.24074099999999998        0.06710228323699421        0        
C2        C        0.59375        0.296297        0.06710228323699421        0        
C3        C        0.5625        0.314815        0.06710228323699421        0        
C4        C        0.59375        0.259259        0.06710228323699421        0        
C_FG        C        0.5625        0.351852        0.06710228323699421        0.08        
C2        C        0.59375        0.407408        0.06710228323699421        0        
C3        C        0.5625        0.42592500000000005        0.06710228323699421        0        
C4        C        0.59375        0.37037        0.06710228323699421        0        
C1        C        0.5625        0.46296300000000007        0.06710228323699421        0        
C2        C        0.59375        0.518519        0.06710228323699421        0        
C_FG        C        0.5625        0.537037        0.06710228323699421        0.08        
C4        C        0.59375        0.481481        0.06710228323699421        0        
C1        C        0.5625        0.574075        0.06710228323699421        0        
C2        C        0.59375        0.62963        0.06710228323699421        0        
C3        C        0.5625        0.648148        0.06710228323699421        0        
C4        C        0.59375        0.592592        0.06710228323699421        0        
C1        C        0.625        0.018519        0.06710228323699421        0        
C2        C        0.65625        0.074075        0.06710228323699421        0        
C3        C        0.625        0.092592        0.06710228323699421        0        
C4        C        0.65625        0.037037        0.06710228323699421        0        
C1        C        0.625        0.12963        0.06710228323699421        0        
C2        C        0.65625        0.185185        0.06710228323699421        0        
C3        C        0.625        0.203703        0.06710228323699421        0        
C4        C        0.65625        0.148148        0.06710228323699421        0        
C1        C        0.625        0.24074099999999998        0.06710228323699421        0        
C2        C        0.65625        0.296297        0.06710228323699421        0        
C3        C        0.625        0.314815        0.06710228323699421        0        
C4        C        0.65625        0.259259        0.06710228323699421        0        
C1        C        0.625        0.351852        0.06710228323699421        0        
C2        C        0.65625        0.407408        0.06710228323699421        0        
C3        C        0.625        0.42592500000000005        0.06710228323699421        0        
C4        C        0.65625        0.37037        0.06710228323699421        0        
C1        C        0.625        0.46296300000000007        0.06710228323699421        0        
C2        C        0.65625        0.518519        0.06710228323699421        0        
C3        C        0.625        0.537037        0.06710228323699421        0        
C4        C        0.65625        0.481481        0.06710228323699421        0        
C1        C        0.625        0.574075        0.06710228323699421        0        
C2        C        0.65625        0.62963        0.06710228323699421        0        
C3        C        0.625        0.648148        0.06710228323699421        0        
C4        C        0.65625        0.592592        0.06710228323699421        0        
C1        C        0.6875        0.018519        0.06710228323699421        0        
C2        C        0.71875        0.074075        0.06710228323699421        0        
C3        C        0.6875        0.092592        0.06710228323699421        0        
C4        C        0.71875        0.037037        0.06710228323699421        0        
C1        C        0.6875        0.12963        0.06710228323699421        0        
C2        C        0.71875        0.185185        0.06710228323699421        0        
C3        C        0.6875        0.203703        0.06710228323699421        0        
C4        C        0.71875        0.148148        0.06710228323699421        0        
C1        C        0.6875        0.24074099999999998        0.06710228323699421        0        
C2        C        0.71875        0.296297        0.06710228323699421        0        
C3        C        0.6875        0.314815        0.06710228323699421        0        
C4        C        0.71875        0.259259        0.06710228323699421        0        
C1        C        0.6875        0.351852        0.06710228323699421        0        
C2        C        0.71875        0.407408        0.06710228323699421        0        
C3        C        0.6875        0.42592500000000005        0.06710228323699421        0        
C4        C        0.71875        0.37037        0.06710228323699421        0        
C1        C        0.6875        0.46296300000000007        0.06710228323699421        0        
C2        C        0.71875        0.518519        0.06710228323699421        0        
C3        C        0.6875        0.537037        0.06710228323699421        0        
C4        C        0.71875        0.481481        0.06710228323699421        0        
C1        C        0.6875        0.574075        0.06710228323699421        0        
C2        C        0.71875        0.62963        0.06710228323699421        0        
C3        C        0.6875        0.648148        0.06710228323699421        0        
C4        C        0.71875        0.592592        0.06710228323699421        0        
C_FG        C        0.75        0.018519        0.06710228323699421        0.08        
C2        C        0.78125        0.074075        0.06710228323699421        0        
C3        C        0.75        0.092592        0.06710228323699421        0        
C4        C        0.78125        0.037037        0.06710228323699421        0        
C1        C        0.75        0.12963        0.06710228323699421        0        
C2        C        0.78125        0.185185        0.06710228323699421        0        
C_FG        C        0.75        0.203703        0.06710228323699421        0.08        
C4        C        0.78125        0.148148        0.06710228323699421        0        
C1        C        0.75        0.24074099999999998        0.06710228323699421        0        
C2        C        0.78125        0.296297        0.06710228323699421        0        
C3        C        0.75        0.314815        0.06710228323699421        0        
C4        C        0.78125        0.259259        0.06710228323699421        0        
C_FG        C        0.75        0.351852        0.06710228323699421        0.08        
C2        C        0.78125        0.407408        0.06710228323699421        0        
C3        C        0.75        0.42592500000000005        0.06710228323699421        0        
C4        C        0.78125        0.37037        0.06710228323699421        0        
C1        C        0.75        0.46296300000000007        0.06710228323699421        0        
C2        C        0.78125        0.518519        0.06710228323699421        0        
C_FG        C        0.75        0.537037        0.06710228323699421        0.08        
C4        C        0.78125        0.481481        0.06710228323699421        0        
C1        C        0.75        0.574075        0.06710228323699421        0        
C2        C        0.78125        0.62963        0.06710228323699421        0        
C3        C        0.75        0.648148        0.06710228323699421        0        
C4        C        0.78125        0.592592        0.06710228323699421        0        
C1        C        0.8125        0.018519        0.06710228323699421        0        
C2        C        0.84375        0.074075        0.06710228323699421        0        
C3        C        0.8125        0.092592        0.06710228323699421        0        
C4        C        0.84375        0.037037        0.06710228323699421        0        
C1        C        0.8125        0.12963        0.06710228323699421        0        
C2        C        0.84375        0.185185        0.06710228323699421        0        
C3        C        0.8125        0.203703        0.06710228323699421        0        
C4        C        0.84375        0.148148        0.06710228323699421        0        
C1        C        0.8125        0.24074099999999998        0.06710228323699421        0        
C2        C        0.84375        0.296297        0.06710228323699421        0        
C3        C        0.8125        0.314815        0.06710228323699421        0        
C4        C        0.84375        0.259259        0.06710228323699421        0        
C1        C        0.8125        0.351852        0.06710228323699421        0        
C2        C        0.84375        0.407408        0.06710228323699421        0        
C3        C        0.8125        0.42592500000000005        0.06710228323699421        0        
C4        C        0.84375        0.37037        0.06710228323699421        0        
C1        C        0.8125        0.46296300000000007        0.06710228323699421        0        
C2        C        0.84375        0.518519        0.06710228323699421        0        
C3        C        0.8125        0.537037        0.06710228323699421        0        
C4        C        0.84375        0.481481        0.06710228323699421        0        
C1        C        0.8125        0.574075        0.06710228323699421        0        
C2        C        0.84375        0.62963        0.06710228323699421        0        
C3        C        0.8125        0.648148        0.06710228323699421        0        
C4        C        0.84375        0.592592        0.06710228323699421        0        
C1        C        0.875        0.018519        0.06710228323699421        0        
C2        C        0.9062500000000001        0.074075        0.06710228323699421        0        
C3        C        0.875        0.092592        0.06710228323699421        0        
C4        C        0.9062500000000001        0.037037        0.06710228323699421        0        
C1        C        0.875        0.12963        0.06710228323699421        0        
C2        C        0.9062500000000001        0.185185        0.06710228323699421        0        
C3        C        0.875        0.203703        0.06710228323699421        0        
C4        C        0.9062500000000001        0.148148        0.06710228323699421        0        
C1        C        0.875        0.24074099999999998        0.06710228323699421        0        
C2        C        0.9062500000000001        0.296297        0.06710228323699421        0        
C3        C        0.875        0.314815        0.06710228323699421        0        
C4        C        0.9062500000000001        0.259259        0.06710228323699421        0        
C1        C        0.875        0.351852        0.06710228323699421        0        
C2        C        0.9062500000000001        0.407408        0.06710228323699421        0        
C3        C        0.875        0.42592500000000005        0.06710228323699421        0        
C4        C        0.9062500000000001        0.37037        0.06710228323699421        0        
C1        C        0.875        0.46296300000000007        0.06710228323699421        0        
C2        C        0.9062500000000001        0.518519        0.06710228323699421        0        
C3        C        0.875        0.537037        0.06710228323699421        0        
C4        C        0.9062500000000001        0.481481        0.06710228323699421        0        
C1        C        0.875        0.574075        0.06710228323699421        0        
C2        C        0.9062500000000001        0.62963        0.06710228323699421        0        
C3        C        0.875        0.648148        0.06710228323699421        0        
C4        C        0.9062500000000001        0.592592        0.06710228323699421        0        
C_FG        C        0.9375        0.018519        0.06710228323699421        0.08        
C2        C        0.9687500000000001        0.074075        0.06710228323699421        0        
C3        C        0.9375        0.092592        0.06710228323699421        0        
C4        C        0.9687500000000001        0.037037        0.06710228323699421        0        
C1        C        0.9375        0.12963        0.06710228323699421        0        
C2        C        0.9687500000000001        0.185185        0.06710228323699421        0        
C_FG        C        0.9375        0.203703        0.06710228323699421        0.08        
C4        C        0.9687500000000001        0.148148        0.06710228323699421        0        
C1        C        0.9375        0.24074099999999998        0.06710228323699421        0        
C2        C        0.9687500000000001        0.296297        0.06710228323699421        0        
C3        C        0.9375        0.314815        0.06710228323699421        0        
C4        C        0.9687500000000001        0.259259        0.06710228323699421        0        
C_FG        C        0.9375        0.351852        0.06710228323699421        0.08        
C2        C        0.9687500000000001        0.407408        0.06710228323699421        0        
C3        C        0.9375        0.42592500000000005        0.06710228323699421        0        
C4        C        0.9687500000000001        0.37037        0.06710228323699421        0        
C1        C        0.9375        0.46296300000000007        0.06710228323699421        0        
C2        C        0.9687500000000001        0.518519        0.06710228323699421        0        
C_FG        C        0.9375        0.537037        0.06710228323699421        0.08        
C4        C        0.9687500000000001        0.481481        0.06710228323699421        0        
C1        C        0.9375        0.574075        0.06710228323699421        0        
C2        C        0.9687500000000001        0.62963        0.06710228323699421        0        
C3        C        0.9375        0.648148        0.06710228323699421        0        
C4        C        0.9687500000000001        0.592592        0.06710228323699421        0        
C_FG        C        0.0        0.685186        0.06710228323699421        0.08        
C1        C        0.0625        0.685186        0.06710228323699421        0        
C1        C        0.125        0.685186        0.06710228323699421        0        
C_FG        C        0.1875        0.685186        0.06710228323699421        0.08        
C1        C        0.25        0.685186        0.06710228323699421        0        
C1        C        0.3125        0.685186        0.06710228323699421        0        
C_FG        C        0.375        0.685186        0.06710228323699421        0.08        
C1        C        0.4375        0.685186        0.06710228323699421        0        
C1        C        0.5        0.685186        0.06710228323699421        0        
C_FG        C        0.5625        0.685186        0.06710228323699421        0.08        
C1        C        0.625        0.685186        0.06710228323699421        0        
C1        C        0.6875        0.685186        0.06710228323699421        0        
C_FG        C        0.75        0.685186        0.06710228323699421        0.08        
C1        C        0.8125        0.685186        0.06710228323699421        0        
C1        C        0.875        0.685186        0.06710228323699421        0        
C_FG        C        0.9375        0.685186        0.06710228323699421        0.08        
C2        C        0.03125        0.740741        0.06710228323699421        0        
C2        C        0.09375        0.740741        0.06710228323699421        0        
C2        C        0.15625        0.740741        0.06710228323699421        0        
C2        C        0.21875        0.740741        0.06710228323699421        0        
C2        C        0.28125        0.740741        0.06710228323699421        0        
C2        C        0.34375        0.740741        0.06710228323699421        0        
C2        C        0.40625        0.740741        0.06710228323699421        0        
C2        C        0.46875        0.740741        0.06710228323699421        0        
C2        C        0.53125        0.740741        0.06710228323699421        0        
C2        C        0.59375        0.740741        0.06710228323699421        0        
C2        C        0.65625        0.740741        0.06710228323699421        0        
C2        C        0.71875        0.740741        0.06710228323699421        0        
C2        C        0.78125        0.740741        0.06710228323699421        0        
C2        C        0.84375        0.740741        0.06710228323699421        0        
C2        C        0.9062500000000001        0.740741        0.06710228323699421        0        
C2        C        0.9687500000000001        0.740741        0.06710228323699421        0        
C3        C        0.0        0.759259        0.06710228323699421        0        
C3        C        0.0625        0.759259        0.06710228323699421        0        
C3        C        0.125        0.759259        0.06710228323699421        0        
C3        C        0.1875        0.759259        0.06710228323699421        0        
C3        C        0.25        0.759259        0.06710228323699421        0        
C3        C        0.3125        0.759259        0.06710228323699421        0        
C3        C        0.375        0.759259        0.06710228323699421        0        
C3        C        0.4375        0.759259        0.06710228323699421        0        
C3        C        0.5        0.759259        0.06710228323699421        0        
C3        C        0.5625        0.759259        0.06710228323699421        0        
C3        C        0.625        0.759259        0.06710228323699421        0        
C3        C        0.6875        0.759259        0.06710228323699421        0        
C3        C        0.75        0.759259        0.06710228323699421        0        
C3        C        0.8125        0.759259        0.06710228323699421        0        
C3        C        0.875        0.759259        0.06710228323699421        0        
C3        C        0.9375        0.759259        0.06710228323699421        0        
C4        C        0.03125        0.703703        0.06710228323699421        0        
C4        C        0.09375        0.703703        0.06710228323699421        0        
C4        C        0.15625        0.703703        0.06710228323699421        0        
C4        C        0.21875        0.703703        0.06710228323699421        0        
C4        C        0.28125        0.703703        0.06710228323699421        0        
C4        C        0.34375        0.703703        0.06710228323699421        0        
C4        C        0.40625        0.703703        0.06710228323699421        0        
C4        C        0.46875        0.703703        0.06710228323699421        0        
C4        C        0.53125        0.703703        0.06710228323699421        0        
C4        C        0.59375        0.703703        0.06710228323699421        0        
C4        C        0.65625        0.703703        0.06710228323699421        0        
C4        C        0.71875        0.703703        0.06710228323699421        0        
C4        C        0.78125        0.703703        0.06710228323699421        0        
C4        C        0.84375        0.703703        0.06710228323699421        0        
C4        C        0.9062500000000001        0.703703        0.06710228323699421        0        
C4        C        0.9687500000000001        0.703703        0.06710228323699421        0        
C1        C        0.0        0.796297        0.06710228323699421        0        
C1        C        0.0625        0.796297        0.06710228323699421        0        
C1        C        0.125        0.796297        0.06710228323699421        0        
C1        C        0.1875        0.796297        0.06710228323699421        0        
C1        C        0.25        0.796297        0.06710228323699421        0        
C1        C        0.3125        0.796297        0.06710228323699421        0        
C1        C        0.375        0.796297        0.06710228323699421        0        
C1        C        0.4375        0.796297        0.06710228323699421        0        
C1        C        0.5        0.796297        0.06710228323699421        0        
C1        C        0.5625        0.796297        0.06710228323699421        0        
C1        C        0.625        0.796297        0.06710228323699421        0        
C1        C        0.6875        0.796297        0.06710228323699421        0        
C1        C        0.75        0.796297        0.06710228323699421        0        
C1        C        0.8125        0.796297        0.06710228323699421        0        
C1        C        0.875        0.796297        0.06710228323699421        0        
C1        C        0.9375        0.796297        0.06710228323699421        0        
C2        C        0.03125        0.851852        0.06710228323699421        0        
C2        C        0.09375        0.851852        0.06710228323699421        0        
C2        C        0.15625        0.851852        0.06710228323699421        0        
C2        C        0.21875        0.851852        0.06710228323699421        0        
C2        C        0.28125        0.851852        0.06710228323699421        0        
C2        C        0.34375        0.851852        0.06710228323699421        0        
C2        C        0.40625        0.851852        0.06710228323699421        0        
C2        C        0.46875        0.851852        0.06710228323699421        0        
C2        C        0.53125        0.851852        0.06710228323699421        0        
C2        C        0.59375        0.851852        0.06710228323699421        0        
C2        C        0.65625        0.851852        0.06710228323699421        0        
C2        C        0.71875        0.851852        0.06710228323699421        0        
C2        C        0.78125        0.851852        0.06710228323699421        0        
C2        C        0.84375        0.851852        0.06710228323699421        0        
C2        C        0.9062500000000001        0.851852        0.06710228323699421        0        
C2        C        0.9687500000000001        0.851852        0.06710228323699421        0        
C_FG        C        0.0        0.87037        0.06710228323699421        0.08        
C3        C        0.0625        0.87037        0.06710228323699421        0        
C3        C        0.125        0.87037        0.06710228323699421        0        
C_FG        C        0.1875        0.87037        0.06710228323699421        0.08        
C3        C        0.25        0.87037        0.06710228323699421        0        
C3        C        0.3125        0.87037        0.06710228323699421        0        
C_FG        C        0.375        0.87037        0.06710228323699421        0.08        
C3        C        0.4375        0.87037        0.06710228323699421        0        
C3        C        0.5        0.87037        0.06710228323699421        0        
C_FG        C        0.5625        0.87037        0.06710228323699421        0.08        
C3        C        0.625        0.87037        0.06710228323699421        0        
C3        C        0.6875        0.87037        0.06710228323699421        0        
C_FG        C        0.75        0.87037        0.06710228323699421        0.08        
C3        C        0.8125        0.87037        0.06710228323699421        0        
C3        C        0.875        0.87037        0.06710228323699421        0        
C_FG        C        0.9375        0.87037        0.06710228323699421        0.08        
C4        C        0.03125        0.814814        0.06710228323699421        0        
C4        C        0.09375        0.814814        0.06710228323699421        0        
C4        C        0.15625        0.814814        0.06710228323699421        0        
C4        C        0.21875        0.814814        0.06710228323699421        0        
C4        C        0.28125        0.814814        0.06710228323699421        0        
C4        C        0.34375        0.814814        0.06710228323699421        0        
C4        C        0.40625        0.814814        0.06710228323699421        0        
C4        C        0.46875        0.814814        0.06710228323699421        0        
C4        C        0.53125        0.814814        0.06710228323699421        0        
C4        C        0.59375        0.814814        0.06710228323699421        0        
C4        C        0.65625        0.814814        0.06710228323699421        0        
C4        C        0.71875        0.814814        0.06710228323699421        0        
C4        C        0.78125        0.814814        0.06710228323699421        0        
C4        C        0.84375        0.814814        0.06710228323699421        0        
C4        C        0.9062500000000001        0.814814        0.06710228323699421        0        
C4        C        0.9687500000000001        0.814814        0.06710228323699421        0        
C1        C        0.0        0.907408        0.06710228323699421        0        
C1        C        0.0625        0.907408        0.06710228323699421        0        
C1        C        0.125        0.907408        0.06710228323699421        0        
C1        C        0.1875        0.907408        0.06710228323699421        0        
C1        C        0.25        0.907408        0.06710228323699421        0        
C1        C        0.3125        0.907408        0.06710228323699421        0        
C1        C        0.375        0.907408        0.06710228323699421        0        
C1        C        0.4375        0.907408        0.06710228323699421        0        
C1        C        0.5        0.907408        0.06710228323699421        0        
C1        C        0.5625        0.907408        0.06710228323699421        0        
C1        C        0.625        0.907408        0.06710228323699421        0        
C1        C        0.6875        0.907408        0.06710228323699421        0        
C1        C        0.75        0.907408        0.06710228323699421        0        
C1        C        0.8125        0.907408        0.06710228323699421        0        
C1        C        0.875        0.907408        0.06710228323699421        0        
C1        C        0.9375        0.907408        0.06710228323699421        0        
C2        C        0.03125        0.962963        0.06710228323699421        0        
C2        C        0.09375        0.962963        0.06710228323699421        0        
C2        C        0.15625        0.962963        0.06710228323699421        0        
C2        C        0.21875        0.962963        0.06710228323699421        0        
C2        C        0.28125        0.962963        0.06710228323699421        0        
C2        C        0.34375        0.962963        0.06710228323699421        0        
C2        C        0.40625        0.962963        0.06710228323699421        0        
C2        C        0.46875        0.962963        0.06710228323699421        0        
C2        C        0.53125        0.962963        0.06710228323699421        0        
C2        C        0.59375        0.962963        0.06710228323699421        0        
C2        C        0.65625        0.962963        0.06710228323699421        0        
C2        C        0.71875        0.962963        0.06710228323699421        0        
C2        C        0.78125        0.962963        0.06710228323699421        0        
C2        C        0.84375        0.962963        0.06710228323699421        0        
C2        C        0.9062500000000001        0.962963        0.06710228323699421        0        
C2        C        0.9687500000000001        0.962963        0.06710228323699421        0        
C3        C        0.0        0.9814809999999999        0.06710228323699421        0        
C3        C        0.0625        0.9814809999999999        0.06710228323699421        0        
C3        C        0.125        0.9814809999999999        0.06710228323699421        0        
C3        C        0.1875        0.9814809999999999        0.06710228323699421        0        
C3        C        0.25        0.9814809999999999        0.06710228323699421        0        
C3        C        0.3125        0.9814809999999999        0.06710228323699421        0        
C3        C        0.375        0.9814809999999999        0.06710228323699421        0        
C3        C        0.4375        0.9814809999999999        0.06710228323699421        0        
C3        C        0.5        0.9814809999999999        0.06710228323699421        0        
C3        C        0.5625        0.9814809999999999        0.06710228323699421        0        
C3        C        0.625        0.9814809999999999        0.06710228323699421        0        
C3        C        0.6875        0.9814809999999999        0.06710228323699421        0        
C3        C        0.75        0.9814809999999999        0.06710228323699421        0        
C3        C        0.8125        0.9814809999999999        0.06710228323699421        0        
C3        C        0.875        0.9814809999999999        0.06710228323699421        0        
C3        C        0.9375        0.9814809999999999        0.06710228323699421        0        
C4        C        0.03125        0.925925        0.06710228323699421        0        
C4        C        0.09375        0.925925        0.06710228323699421        0        
C4        C        0.15625        0.925925        0.06710228323699421        0        
C4        C        0.21875        0.925925        0.06710228323699421        0        
C4        C        0.28125        0.925925        0.06710228323699421        0        
C4        C        0.34375        0.925925        0.06710228323699421        0        
C4        C        0.40625        0.925925        0.06710228323699421        0        
C4        C        0.46875        0.925925        0.06710228323699421        0        
C4        C        0.53125        0.925925        0.06710228323699421        0        
C4        C        0.59375        0.925925        0.06710228323699421        0        
C4        C        0.65625        0.925925        0.06710228323699421        0        
C4        C        0.71875        0.925925        0.06710228323699421        0        
C4        C        0.78125        0.925925        0.06710228323699421        0        
C4        C        0.84375        0.925925        0.06710228323699421        0        
C4        C        0.9062500000000001        0.925925        0.06710228323699421        0        
C4        C        0.9687500000000001        0.925925        0.06710228323699421        0        
C1        C        0.0        0.018519        0.16392328323699423        0        
C2        C        0.03125        0.074075        0.16392328323699423        0        
C3        C        0.0        0.092592        0.16392328323699423        0        
C4        C        0.03125        0.037037        0.16392328323699423        0        
C1        C        0.0        0.12963        0.16392328323699423        0        
C2        C        0.03125        0.185185        0.16392328323699423        0        
C3        C        0.0        0.203703        0.16392328323699423        0        
C4        C        0.03125        0.148148        0.16392328323699423        0        
C1        C        0.0        0.24074099999999998        0.16392328323699423        0        
C2        C        0.03125        0.296297        0.16392328323699423        0        
C3        C        0.0        0.314815        0.16392328323699423        0        
C4        C        0.03125        0.259259        0.16392328323699423        0        
C1        C        0.0        0.351852        0.16392328323699423        0        
C2        C        0.03125        0.407408        0.16392328323699423        0        
C3        C        0.0        0.42592500000000005        0.16392328323699423        0        
C4        C        0.03125        0.37037        0.16392328323699423        0        
C1        C        0.0        0.46296300000000007        0.16392328323699423        0        
C2        C        0.03125        0.518519        0.16392328323699423        0        
C3        C        0.0        0.537037        0.16392328323699423        0        
C4        C        0.03125        0.481481        0.16392328323699423        0        
C1        C        0.0        0.574075        0.16392328323699423        0        
C2        C        0.03125        0.62963        0.16392328323699423        0        
C3        C        0.0        0.648148        0.16392328323699423        0        
C4        C        0.03125        0.592592        0.16392328323699423        0        
C1        C        0.0625        0.018519        0.16392328323699423        0        
C2        C        0.09375        0.074075        0.16392328323699423        0        
C3        C        0.0625        0.092592        0.16392328323699423        0        
C4        C        0.09375        0.037037        0.16392328323699423        0        
C1        C        0.0625        0.12963        0.16392328323699423        0        
C2        C        0.09375        0.185185        0.16392328323699423        0        
C3        C        0.0625        0.203703        0.16392328323699423        0        
C4        C        0.09375        0.148148        0.16392328323699423        0        
C1        C        0.0625        0.24074099999999998        0.16392328323699423        0        
C2        C        0.09375        0.296297        0.16392328323699423        0        
C3        C        0.0625        0.314815        0.16392328323699423        0        
C4        C        0.09375        0.259259        0.16392328323699423        0        
C1        C        0.0625        0.351852        0.16392328323699423        0        
C2        C        0.09375        0.407408        0.16392328323699423        0        
C3        C        0.0625        0.42592500000000005        0.16392328323699423        0        
C4        C        0.09375        0.37037        0.16392328323699423        0        
C1        C        0.0625        0.46296300000000007        0.16392328323699423        0        
C2        C        0.09375        0.518519        0.16392328323699423        0        
C3        C        0.0625        0.537037        0.16392328323699423        0        
C4        C        0.09375        0.481481        0.16392328323699423        0        
C1        C        0.0625        0.574075        0.16392328323699423        0        
C2        C        0.09375        0.62963        0.16392328323699423        0        
C3        C        0.0625        0.648148        0.16392328323699423        0        
C4        C        0.09375        0.592592        0.16392328323699423        0        
C1        C        0.125        0.018519        0.16392328323699423        0        
C2        C        0.15625        0.074075        0.16392328323699423        0        
C3        C        0.125        0.092592        0.16392328323699423        0        
C4        C        0.15625        0.037037        0.16392328323699423        0        
C1        C        0.125        0.12963        0.16392328323699423        0        
C2        C        0.15625        0.185185        0.16392328323699423        0        
C3        C        0.125        0.203703        0.16392328323699423        0        
C4        C        0.15625        0.148148        0.16392328323699423        0        
C1        C        0.125        0.24074099999999998        0.16392328323699423        0        
C2        C        0.15625        0.296297        0.16392328323699423        0        
C3        C        0.125        0.314815        0.16392328323699423        0        
C4        C        0.15625        0.259259        0.16392328323699423        0        
C1        C        0.125        0.351852        0.16392328323699423        0        
C2        C        0.15625        0.407408        0.16392328323699423        0        
C3        C        0.125        0.42592500000000005        0.16392328323699423        0        
C4        C        0.15625        0.37037        0.16392328323699423        0        
C1        C        0.125        0.46296300000000007        0.16392328323699423        0        
C2        C        0.15625        0.518519        0.16392328323699423        0        
C3        C        0.125        0.537037        0.16392328323699423        0        
C4        C        0.15625        0.481481        0.16392328323699423        0        
C1        C        0.125        0.574075        0.16392328323699423        0        
C2        C        0.15625        0.62963        0.16392328323699423        0        
C3        C        0.125        0.648148        0.16392328323699423        0        
C4        C        0.15625        0.592592        0.16392328323699423        0        
C1        C        0.1875        0.018519        0.16392328323699423        0        
C2        C        0.21875        0.074075        0.16392328323699423        0        
C3        C        0.1875        0.092592        0.16392328323699423        0        
C4        C        0.21875        0.037037        0.16392328323699423        0        
C1        C        0.1875        0.12963        0.16392328323699423        0        
C2        C        0.21875        0.185185        0.16392328323699423        0        
C3        C        0.1875        0.203703        0.16392328323699423        0        
C4        C        0.21875        0.148148        0.16392328323699423        0        
C1        C        0.1875        0.24074099999999998        0.16392328323699423        0        
C2        C        0.21875        0.296297        0.16392328323699423        0        
C3        C        0.1875        0.314815        0.16392328323699423        0        
C4        C        0.21875        0.259259        0.16392328323699423        0        
C1        C        0.1875        0.351852        0.16392328323699423        0        
C2        C        0.21875        0.407408        0.16392328323699423        0        
C3        C        0.1875        0.42592500000000005        0.16392328323699423        0        
C4        C        0.21875        0.37037        0.16392328323699423        0        
C1        C        0.1875        0.46296300000000007        0.16392328323699423        0        
C2        C        0.21875        0.518519        0.16392328323699423        0        
C3        C        0.1875        0.537037        0.16392328323699423        0        
C4        C        0.21875        0.481481        0.16392328323699423        0        
C1        C        0.1875        0.574075        0.16392328323699423        0        
C2        C        0.21875        0.62963        0.16392328323699423        0        
C3        C        0.1875        0.648148        0.16392328323699423        0        
C4        C        0.21875        0.592592        0.16392328323699423        0        
C1        C        0.25        0.018519        0.16392328323699423        0        
C2        C        0.28125        0.074075        0.16392328323699423        0        
C3        C        0.25        0.092592        0.16392328323699423        0        
C4        C        0.28125        0.037037        0.16392328323699423        0        
C1        C        0.25        0.12963        0.16392328323699423        0        
C2        C        0.28125        0.185185        0.16392328323699423        0        
C3        C        0.25        0.203703        0.16392328323699423        0        
C4        C        0.28125        0.148148        0.16392328323699423        0        
C1        C        0.25        0.24074099999999998        0.16392328323699423        0        
C2        C        0.28125        0.296297        0.16392328323699423        0        
C3        C        0.25        0.314815        0.16392328323699423        0        
C4        C        0.28125        0.259259        0.16392328323699423        0        
C1        C        0.25        0.351852        0.16392328323699423        0        
C2        C        0.28125        0.407408        0.16392328323699423        0        
C3        C        0.25        0.42592500000000005        0.16392328323699423        0        
C4        C        0.28125        0.37037        0.16392328323699423        0        
C1        C        0.25        0.46296300000000007        0.16392328323699423        0        
C2        C        0.28125        0.518519        0.16392328323699423        0        
C3        C        0.25        0.537037        0.16392328323699423        0        
C4        C        0.28125        0.481481        0.16392328323699423        0        
C1        C        0.25        0.574075        0.16392328323699423        0        
C2        C        0.28125        0.62963        0.16392328323699423        0        
C3        C        0.25        0.648148        0.16392328323699423        0        
C4        C        0.28125        0.592592        0.16392328323699423        0        
C1        C        0.3125        0.018519        0.16392328323699423        0        
C2        C        0.34375        0.074075        0.16392328323699423        0        
C3        C        0.3125        0.092592        0.16392328323699423        0        
C4        C        0.34375        0.037037        0.16392328323699423        0        
C1        C        0.3125        0.12963        0.16392328323699423        0        
C2        C        0.34375        0.185185        0.16392328323699423        0        
C3        C        0.3125        0.203703        0.16392328323699423        0        
C4        C        0.34375        0.148148        0.16392328323699423        0        
C1        C        0.3125        0.24074099999999998        0.16392328323699423        0        
C2        C        0.34375        0.296297        0.16392328323699423        0        
C3        C        0.3125        0.314815        0.16392328323699423        0        
C4        C        0.34375        0.259259        0.16392328323699423        0        
C1        C        0.3125        0.351852        0.16392328323699423        0        
C2        C        0.34375        0.407408        0.16392328323699423        0        
C3        C        0.3125        0.42592500000000005        0.16392328323699423        0        
C4        C        0.34375        0.37037        0.16392328323699423        0        
C1        C        0.3125        0.46296300000000007        0.16392328323699423        0        
C2        C        0.34375        0.518519        0.16392328323699423        0        
C3        C        0.3125        0.537037        0.16392328323699423        0        
C4        C        0.34375        0.481481        0.16392328323699423        0        
C1        C        0.3125        0.574075        0.16392328323699423        0        
C2        C        0.34375        0.62963        0.16392328323699423        0        
C3        C        0.3125        0.648148        0.16392328323699423        0        
C4        C        0.34375        0.592592        0.16392328323699423        0        
C1        C        0.375        0.018519        0.16392328323699423        0        
C2        C        0.40625        0.074075        0.16392328323699423        0        
C3        C        0.375        0.092592        0.16392328323699423        0        
C4        C        0.40625        0.037037        0.16392328323699423        0        
C1        C        0.375        0.12963        0.16392328323699423        0        
C2        C        0.40625        0.185185        0.16392328323699423        0        
C3        C        0.375        0.203703        0.16392328323699423        0        
C4        C        0.40625        0.148148        0.16392328323699423        0        
C1        C        0.375        0.24074099999999998        0.16392328323699423        0        
C2        C        0.40625        0.296297        0.16392328323699423        0        
C3        C        0.375        0.314815        0.16392328323699423        0        
C4        C        0.40625        0.259259        0.16392328323699423        0        
C1        C        0.375        0.351852        0.16392328323699423        0        
C2        C        0.40625        0.407408        0.16392328323699423        0        
C3        C        0.375        0.42592500000000005        0.16392328323699423        0        
C4        C        0.40625        0.37037        0.16392328323699423        0        
C1        C        0.375        0.46296300000000007        0.16392328323699423        0        
C2        C        0.40625        0.518519        0.16392328323699423        0        
C3        C        0.375        0.537037        0.16392328323699423        0        
C4        C        0.40625        0.481481        0.16392328323699423        0        
C1        C        0.375        0.574075        0.16392328323699423        0        
C2        C        0.40625        0.62963        0.16392328323699423        0        
C3        C        0.375        0.648148        0.16392328323699423        0        
C4        C        0.40625        0.592592        0.16392328323699423        0        
C1        C        0.4375        0.018519        0.16392328323699423        0        
C2        C        0.46875        0.074075        0.16392328323699423        0        
C3        C        0.4375        0.092592        0.16392328323699423        0        
C4        C        0.46875        0.037037        0.16392328323699423        0        
C1        C        0.4375        0.12963        0.16392328323699423        0        
C2        C        0.46875        0.185185        0.16392328323699423        0        
C3        C        0.4375        0.203703        0.16392328323699423        0        
C4        C        0.46875        0.148148        0.16392328323699423        0        
C1        C        0.4375        0.24074099999999998        0.16392328323699423        0        
C2        C        0.46875        0.296297        0.16392328323699423        0        
C3        C        0.4375        0.314815        0.16392328323699423        0        
C4        C        0.46875        0.259259        0.16392328323699423        0        
C1        C        0.4375        0.351852        0.16392328323699423        0        
C2        C        0.46875        0.407408        0.16392328323699423        0        
C3        C        0.4375        0.42592500000000005        0.16392328323699423        0        
C4        C        0.46875        0.37037        0.16392328323699423        0        
C1        C        0.4375        0.46296300000000007        0.16392328323699423        0        
C2        C        0.46875        0.518519        0.16392328323699423        0        
C3        C        0.4375        0.537037        0.16392328323699423        0        
C4        C        0.46875        0.481481        0.16392328323699423        0        
C1        C        0.4375        0.574075        0.16392328323699423        0        
C2        C        0.46875        0.62963        0.16392328323699423        0        
C3        C        0.4375        0.648148        0.16392328323699423        0        
C4        C        0.46875        0.592592        0.16392328323699423        0        
C1        C        0.5        0.018519        0.16392328323699423        0        
C2        C        0.53125        0.074075        0.16392328323699423        0        
C3        C        0.5        0.092592        0.16392328323699423        0        
C4        C        0.53125        0.037037        0.16392328323699423        0        
C1        C        0.5        0.12963        0.16392328323699423        0        
C2        C        0.53125        0.185185        0.16392328323699423        0        
C3        C        0.5        0.203703        0.16392328323699423        0        
C4        C        0.53125        0.148148        0.16392328323699423        0        
C1        C        0.5        0.24074099999999998        0.16392328323699423        0        
C2        C        0.53125        0.296297        0.16392328323699423        0        
C3        C        0.5        0.314815        0.16392328323699423        0        
C4        C        0.53125        0.259259        0.16392328323699423        0        
C1        C        0.5        0.351852        0.16392328323699423        0        
C2        C        0.53125        0.407408        0.16392328323699423        0        
C3        C        0.5        0.42592500000000005        0.16392328323699423        0        
C4        C        0.53125        0.37037        0.16392328323699423        0        
C1        C        0.5        0.46296300000000007        0.16392328323699423        0        
C2        C        0.53125        0.518519        0.16392328323699423        0        
C3        C        0.5        0.537037        0.16392328323699423        0        
C4        C        0.53125        0.481481        0.16392328323699423        0        
C1        C        0.5        0.574075        0.16392328323699423        0        
C2        C        0.53125        0.62963        0.16392328323699423        0        
C3        C        0.5        0.648148        0.16392328323699423        0        
C4        C        0.53125        0.592592        0.16392328323699423        0        
C1        C        0.5625        0.018519        0.16392328323699423        0        
C2        C        0.59375        0.074075        0.16392328323699423        0        
C3        C        0.5625        0.092592        0.16392328323699423        0        
C4        C        0.59375        0.037037        0.16392328323699423        0        
C1        C        0.5625        0.12963        0.16392328323699423        0        
C2        C        0.59375        0.185185        0.16392328323699423        0        
C3        C        0.5625        0.203703        0.16392328323699423        0        
C4        C        0.59375        0.148148        0.16392328323699423        0        
C1        C        0.5625        0.24074099999999998        0.16392328323699423        0        
C2        C        0.59375        0.296297        0.16392328323699423        0        
C3        C        0.5625        0.314815        0.16392328323699423        0        
C4        C        0.59375        0.259259        0.16392328323699423        0        
C1        C        0.5625        0.351852        0.16392328323699423        0        
C2        C        0.59375        0.407408        0.16392328323699423        0        
C3        C        0.5625        0.42592500000000005        0.16392328323699423        0        
C4        C        0.59375        0.37037        0.16392328323699423        0        
C1        C        0.5625        0.46296300000000007        0.16392328323699423        0        
C2        C        0.59375        0.518519        0.16392328323699423        0        
C3        C        0.5625        0.537037        0.16392328323699423        0        
C4        C        0.59375        0.481481        0.16392328323699423        0        
C1        C        0.5625        0.574075        0.16392328323699423        0        
C2        C        0.59375        0.62963        0.16392328323699423        0        
C3        C        0.5625        0.648148        0.16392328323699423        0        
C4        C        0.59375        0.592592        0.16392328323699423        0        
C1        C        0.625        0.018519        0.16392328323699423        0        
C2        C        0.65625        0.074075        0.16392328323699423        0        
C3        C        0.625        0.092592        0.16392328323699423        0        
C4        C        0.65625        0.037037        0.16392328323699423        0        
C1        C        0.625        0.12963        0.16392328323699423        0        
C2        C        0.65625        0.185185        0.16392328323699423        0        
C3        C        0.625        0.203703        0.16392328323699423        0        
C4        C        0.65625        0.148148        0.16392328323699423        0        
C1        C        0.625        0.24074099999999998        0.16392328323699423        0        
C2        C        0.65625        0.296297        0.16392328323699423        0        
C3        C        0.625        0.314815        0.16392328323699423        0        
C4        C        0.65625        0.259259        0.16392328323699423        0        
C1        C        0.625        0.351852        0.16392328323699423        0        
C2        C        0.65625        0.407408        0.16392328323699423        0        
C3        C        0.625        0.42592500000000005        0.16392328323699423        0        
C4        C        0.65625        0.37037        0.16392328323699423        0        
C1        C        0.625        0.46296300000000007        0.16392328323699423        0        
C2        C        0.65625        0.518519        0.16392328323699423        0        
C3        C        0.625        0.537037        0.16392328323699423        0        
C4        C        0.65625        0.481481        0.16392328323699423        0        
C1        C        0.625        0.574075        0.16392328323699423        0        
C2        C        0.65625        0.62963        0.16392328323699423        0        
C3        C        0.625        0.648148        0.16392328323699423        0        
C4        C        0.65625        0.592592        0.16392328323699423        0        
C1        C        0.6875        0.018519        0.16392328323699423        0        
C2        C        0.71875        0.074075        0.16392328323699423        0        
C3        C        0.6875        0.092592        0.16392328323699423        0        
C4        C        0.71875        0.037037        0.16392328323699423        0        
C1        C        0.6875        0.12963        0.16392328323699423        0        
C2        C        0.71875        0.185185        0.16392328323699423        0        
C3        C        0.6875        0.203703        0.16392328323699423        0        
C4        C        0.71875        0.148148        0.16392328323699423        0        
C1        C        0.6875        0.24074099999999998        0.16392328323699423        0        
C2        C        0.71875        0.296297        0.16392328323699423        0        
C3        C        0.6875        0.314815        0.16392328323699423        0        
C4        C        0.71875        0.259259        0.16392328323699423        0        
C1        C        0.6875        0.351852        0.16392328323699423        0        
C2        C        0.71875        0.407408        0.16392328323699423        0        
C3        C        0.6875        0.42592500000000005        0.16392328323699423        0        
C4        C        0.71875        0.37037        0.16392328323699423        0        
C1        C        0.6875        0.46296300000000007        0.16392328323699423        0        
C2        C        0.71875        0.518519        0.16392328323699423        0        
C3        C        0.6875        0.537037        0.16392328323699423        0        
C4        C        0.71875        0.481481        0.16392328323699423        0        
C1        C        0.6875        0.574075        0.16392328323699423        0        
C2        C        0.71875        0.62963        0.16392328323699423        0        
C3        C        0.6875        0.648148        0.16392328323699423        0        
C4        C        0.71875        0.592592        0.16392328323699423        0        
C1        C        0.75        0.018519        0.16392328323699423        0        
C2        C        0.78125        0.074075        0.16392328323699423        0        
C3        C        0.75        0.092592        0.16392328323699423        0        
C4        C        0.78125        0.037037        0.16392328323699423        0        
C1        C        0.75        0.12963        0.16392328323699423        0        
C2        C        0.78125        0.185185        0.16392328323699423        0        
C3        C        0.75        0.203703        0.16392328323699423        0        
C4        C        0.78125        0.148148        0.16392328323699423        0        
C1        C        0.75        0.24074099999999998        0.16392328323699423        0        
C2        C        0.78125        0.296297        0.16392328323699423        0        
C3        C        0.75        0.314815        0.16392328323699423        0        
C4        C        0.78125        0.259259        0.16392328323699423        0        
C1        C        0.75        0.351852        0.16392328323699423        0        
C2        C        0.78125        0.407408        0.16392328323699423        0        
C3        C        0.75        0.42592500000000005        0.16392328323699423        0        
C4        C        0.78125        0.37037        0.16392328323699423        0        
C1        C        0.75        0.46296300000000007        0.16392328323699423        0        
C2        C        0.78125        0.518519        0.16392328323699423        0        
C3        C        0.75        0.537037        0.16392328323699423        0        
C4        C        0.78125        0.481481        0.16392328323699423        0        
C1        C        0.75        0.574075        0.16392328323699423        0        
C2        C        0.78125        0.62963        0.16392328323699423        0        
C3        C        0.75        0.648148        0.16392328323699423        0        
C4        C        0.78125        0.592592        0.16392328323699423        0        
C1        C        0.8125        0.018519        0.16392328323699423        0        
C2        C        0.84375        0.074075        0.16392328323699423        0        
C3        C        0.8125        0.092592        0.16392328323699423        0        
C4        C        0.84375        0.037037        0.16392328323699423        0        
C1        C        0.8125        0.12963        0.16392328323699423        0        
C2        C        0.84375        0.185185        0.16392328323699423        0        
C3        C        0.8125        0.203703        0.16392328323699423        0        
C4        C        0.84375        0.148148        0.16392328323699423        0        
C1        C        0.8125        0.24074099999999998        0.16392328323699423        0        
C2        C        0.84375        0.296297        0.16392328323699423        0        
C3        C        0.8125        0.314815        0.16392328323699423        0        
C4        C        0.84375        0.259259        0.16392328323699423        0        
C1        C        0.8125        0.351852        0.16392328323699423        0        
C2        C        0.84375        0.407408        0.16392328323699423        0        
C3        C        0.8125        0.42592500000000005        0.16392328323699423        0        
C4        C        0.84375        0.37037        0.16392328323699423        0        
C1        C        0.8125        0.46296300000000007        0.16392328323699423        0        
C2        C        0.84375        0.518519        0.16392328323699423        0        
C3        C        0.8125        0.537037        0.16392328323699423        0        
C4        C        0.84375        0.481481        0.16392328323699423        0        
C1        C        0.8125        0.574075        0.16392328323699423        0        
C2        C        0.84375        0.62963        0.16392328323699423        0        
C3        C        0.8125        0.648148        0.16392328323699423        0        
C4        C        0.84375        0.592592        0.16392328323699423        0        
C1        C        0.875        0.018519        0.16392328323699423        0        
C2        C        0.9062500000000001        0.074075        0.16392328323699423        0        
C3        C        0.875        0.092592        0.16392328323699423        0        
C4        C        0.9062500000000001        0.037037        0.16392328323699423        0        
C1        C        0.875        0.12963        0.16392328323699423        0        
C2        C        0.9062500000000001        0.185185        0.16392328323699423        0        
C3        C        0.875        0.203703        0.16392328323699423        0        
C4        C        0.9062500000000001        0.148148        0.16392328323699423        0        
C1        C        0.875        0.24074099999999998        0.16392328323699423        0        
C2        C        0.9062500000000001        0.296297        0.16392328323699423        0        
C3        C        0.875        0.314815        0.16392328323699423        0        
C4        C        0.9062500000000001        0.259259        0.16392328323699423        0        
C1        C        0.875        0.351852        0.16392328323699423        0        
C2        C        0.9062500000000001        0.407408        0.16392328323699423        0        
C3        C        0.875        0.42592500000000005        0.16392328323699423        0        
C4        C        0.9062500000000001        0.37037        0.16392328323699423        0        
C1        C        0.875        0.46296300000000007        0.16392328323699423        0        
C2        C        0.9062500000000001        0.518519        0.16392328323699423        0        
C3        C        0.875        0.537037        0.16392328323699423        0        
C4        C        0.9062500000000001        0.481481        0.16392328323699423        0        
C1        C        0.875        0.574075        0.16392328323699423        0        
C2        C        0.9062500000000001        0.62963        0.16392328323699423        0        
C3        C        0.875        0.648148        0.16392328323699423        0        
C4        C        0.9062500000000001        0.592592        0.16392328323699423        0        
C1        C        0.9375        0.018519        0.16392328323699423        0        
C2        C        0.9687500000000001        0.074075        0.16392328323699423        0        
C3        C        0.9375        0.092592        0.16392328323699423        0        
C4        C        0.9687500000000001        0.037037        0.16392328323699423        0        
C1        C        0.9375        0.12963        0.16392328323699423        0        
C2        C        0.9687500000000001        0.185185        0.16392328323699423        0        
C3        C        0.9375        0.203703        0.16392328323699423        0        
C4        C        0.9687500000000001        0.148148        0.16392328323699423        0        
C1        C        0.9375        0.24074099999999998        0.16392328323699423        0        
C2        C        0.9687500000000001        0.296297        0.16392328323699423        0        
C3        C        0.9375        0.314815        0.16392328323699423        0        
C4        C        0.9687500000000001        0.259259        0.16392328323699423        0        
C1        C        0.9375        0.351852        0.16392328323699423        0        
C2        C        0.9687500000000001        0.407408        0.16392328323699423        0        
C3        C        0.9375        0.42592500000000005        0.16392328323699423        0        
C4        C        0.9687500000000001        0.37037        0.16392328323699423        0        
C1        C        0.9375        0.46296300000000007        0.16392328323699423        0        
C2        C        0.9687500000000001        0.518519        0.16392328323699423        0        
C3        C        0.9375        0.537037        0.16392328323699423        0        
C4        C        0.9687500000000001        0.481481        0.16392328323699423        0        
C1        C        0.9375        0.574075        0.16392328323699423        0        
C2        C        0.9687500000000001        0.62963        0.16392328323699423        0        
C3        C        0.9375        0.648148        0.16392328323699423        0        
C4        C        0.9687500000000001        0.592592        0.16392328323699423        0        
C1        C        0.0        0.685186        0.16392328323699423        0        
C1        C        0.0625        0.685186        0.16392328323699423        0        
C1        C        0.125        0.685186        0.16392328323699423        0        
C1        C        0.1875        0.685186        0.16392328323699423        0        
C1        C        0.25        0.685186        0.16392328323699423        0        
C1        C        0.3125        0.685186        0.16392328323699423        0        
C1        C        0.375        0.685186        0.16392328323699423        0        
C1        C        0.4375        0.685186        0.16392328323699423        0        
C1        C        0.5        0.685186        0.16392328323699423        0        
C1        C        0.5625        0.685186        0.16392328323699423        0        
C1        C        0.625        0.685186        0.16392328323699423        0        
C1        C        0.6875        0.685186        0.16392328323699423        0        
C1        C        0.75        0.685186        0.16392328323699423        0        
C1        C        0.8125        0.685186        0.16392328323699423        0        
C1        C        0.875        0.685186        0.16392328323699423        0        
C1        C        0.9375        0.685186        0.16392328323699423        0        
C2        C        0.03125        0.740741        0.16392328323699423        0        
C2        C        0.09375        0.740741        0.16392328323699423        0        
C2        C        0.15625        0.740741        0.16392328323699423        0        
C2        C        0.21875        0.740741        0.16392328323699423        0        
C2        C        0.28125        0.740741        0.16392328323699423        0        
C2        C        0.34375        0.740741        0.16392328323699423        0        
C2        C        0.40625        0.740741        0.16392328323699423        0        
C2        C        0.46875        0.740741        0.16392328323699423        0        
C2        C        0.53125        0.740741        0.16392328323699423        0        
C2        C        0.59375        0.740741        0.16392328323699423        0        
C2        C        0.65625        0.740741        0.16392328323699423        0        
C2        C        0.71875        0.740741        0.16392328323699423        0        
C2        C        0.78125        0.740741        0.16392328323699423        0        
C2        C        0.84375        0.740741        0.16392328323699423        0        
C2        C        0.9062500000000001        0.740741        0.16392328323699423        0        
C2        C        0.9687500000000001        0.740741        0.16392328323699423        0        
C3        C        0.0        0.759259        0.16392328323699423        0        
C3        C        0.0625        0.759259        0.16392328323699423        0        
C3        C        0.125        0.759259        0.16392328323699423        0        
C3        C        0.1875        0.759259        0.16392328323699423        0        
C3        C        0.25        0.759259        0.16392328323699423        0        
C3        C        0.3125        0.759259        0.16392328323699423        0        
C3        C        0.375        0.759259        0.16392328323699423        0        
C3        C        0.4375        0.759259        0.16392328323699423        0        
C3        C        0.5        0.759259        0.16392328323699423        0        
C3        C        0.5625        0.759259        0.16392328323699423        0        
C3        C        0.625        0.759259        0.16392328323699423        0        
C3        C        0.6875        0.759259        0.16392328323699423        0        
C3        C        0.75        0.759259        0.16392328323699423        0        
C3        C        0.8125        0.759259        0.16392328323699423        0        
C3        C        0.875        0.759259        0.16392328323699423        0        
C3        C        0.9375        0.759259        0.16392328323699423        0        
C4        C        0.03125        0.703703        0.16392328323699423        0        
C4        C        0.09375        0.703703        0.16392328323699423        0        
C4        C        0.15625        0.703703        0.16392328323699423        0        
C4        C        0.21875        0.703703        0.16392328323699423        0        
C4        C        0.28125        0.703703        0.16392328323699423        0        
C4        C        0.34375        0.703703        0.16392328323699423        0        
C4        C        0.40625        0.703703        0.16392328323699423        0        
C4        C        0.46875        0.703703        0.16392328323699423        0        
C4        C        0.53125        0.703703        0.16392328323699423        0        
C4        C        0.59375        0.703703        0.16392328323699423        0        
C4        C        0.65625        0.703703        0.16392328323699423        0        
C4        C        0.71875        0.703703        0.16392328323699423        0        
C4        C        0.78125        0.703703        0.16392328323699423        0        
C4        C        0.84375        0.703703        0.16392328323699423        0        
C4        C        0.9062500000000001        0.703703        0.16392328323699423        0        
C4        C        0.9687500000000001        0.703703        0.16392328323699423        0        
C1        C        0.0        0.796297        0.16392328323699423        0        
C1        C        0.0625        0.796297        0.16392328323699423        0        
C1        C        0.125        0.796297        0.16392328323699423        0        
C1        C        0.1875        0.796297        0.16392328323699423        0        
C1        C        0.25        0.796297        0.16392328323699423        0        
C1        C        0.3125        0.796297        0.16392328323699423        0        
C1        C        0.375        0.796297        0.16392328323699423        0        
C1        C        0.4375        0.796297        0.16392328323699423        0        
C1        C        0.5        0.796297        0.16392328323699423        0        
C1        C        0.5625        0.796297        0.16392328323699423        0        
C1        C        0.625        0.796297        0.16392328323699423        0        
C1        C        0.6875        0.796297        0.16392328323699423        0        
C1        C        0.75        0.796297        0.16392328323699423        0        
C1        C        0.8125        0.796297        0.16392328323699423        0        
C1        C        0.875        0.796297        0.16392328323699423        0        
C1        C        0.9375        0.796297        0.16392328323699423        0        
C2        C        0.03125        0.851852        0.16392328323699423        0        
C2        C        0.09375        0.851852        0.16392328323699423        0        
C2        C        0.15625        0.851852        0.16392328323699423        0        
C2        C        0.21875        0.851852        0.16392328323699423        0        
C2        C        0.28125        0.851852        0.16392328323699423        0        
C2        C        0.34375        0.851852        0.16392328323699423        0        
C2        C        0.40625        0.851852        0.16392328323699423        0        
C2        C        0.46875        0.851852        0.16392328323699423        0        
C2        C        0.53125        0.851852        0.16392328323699423        0        
C2        C        0.59375        0.851852        0.16392328323699423        0        
C2        C        0.65625        0.851852        0.16392328323699423        0        
C2        C        0.71875        0.851852        0.16392328323699423        0        
C2        C        0.78125        0.851852        0.16392328323699423        0        
C2        C        0.84375        0.851852        0.16392328323699423        0        
C2        C        0.9062500000000001        0.851852        0.16392328323699423        0        
C2        C        0.9687500000000001        0.851852        0.16392328323699423        0        
C3        C        0.0        0.87037        0.16392328323699423        0        
C3        C        0.0625        0.87037        0.16392328323699423        0        
C3        C        0.125        0.87037        0.16392328323699423        0        
C3        C        0.1875        0.87037        0.16392328323699423        0        
C3        C        0.25        0.87037        0.16392328323699423        0        
C3        C        0.3125        0.87037        0.16392328323699423        0        
C3        C        0.375        0.87037        0.16392328323699423        0        
C3        C        0.4375        0.87037        0.16392328323699423        0        
C3        C        0.5        0.87037        0.16392328323699423        0        
C3        C        0.5625        0.87037        0.16392328323699423        0        
C3        C        0.625        0.87037        0.16392328323699423        0        
C3        C        0.6875        0.87037        0.16392328323699423        0        
C3        C        0.75        0.87037        0.16392328323699423        0        
C3        C        0.8125        0.87037        0.16392328323699423        0        
C3        C        0.875        0.87037        0.16392328323699423        0        
C3        C        0.9375        0.87037        0.16392328323699423        0        
C4        C        0.03125        0.814814        0.16392328323699423        0        
C4        C        0.09375        0.814814        0.16392328323699423        0        
C4        C        0.15625        0.814814        0.16392328323699423        0        
C4        C        0.21875        0.814814        0.16392328323699423        0        
C4        C        0.28125        0.814814        0.16392328323699423        0        
C4        C        0.34375        0.814814        0.16392328323699423        0        
C4        C        0.40625        0.814814        0.16392328323699423        0        
C4        C        0.46875        0.814814        0.16392328323699423        0        
C4        C        0.53125        0.814814        0.16392328323699423        0        
C4        C        0.59375        0.814814        0.16392328323699423        0        
C4        C        0.65625        0.814814        0.16392328323699423        0        
C4        C        0.71875        0.814814        0.16392328323699423        0        
C4        C        0.78125        0.814814        0.16392328323699423        0        
C4        C        0.84375        0.814814        0.16392328323699423        0        
C4        C        0.9062500000000001        0.814814        0.16392328323699423        0        
C4        C        0.9687500000000001        0.814814        0.16392328323699423        0        
C1        C        0.0        0.907408        0.16392328323699423        0        
C1        C        0.0625        0.907408        0.16392328323699423        0        
C1        C        0.125        0.907408        0.16392328323699423        0        
C1        C        0.1875        0.907408        0.16392328323699423        0        
C1        C        0.25        0.907408        0.16392328323699423        0        
C1        C        0.3125        0.907408        0.16392328323699423        0        
C1        C        0.375        0.907408        0.16392328323699423        0        
C1        C        0.4375        0.907408        0.16392328323699423        0        
C1        C        0.5        0.907408        0.16392328323699423        0        
C1        C        0.5625        0.907408        0.16392328323699423        0        
C1        C        0.625        0.907408        0.16392328323699423        0        
C1        C        0.6875        0.907408        0.16392328323699423        0        
C1        C        0.75        0.907408        0.16392328323699423        0        
C1        C        0.8125        0.907408        0.16392328323699423        0        
C1        C        0.875        0.907408        0.16392328323699423        0        
C1        C        0.9375        0.907408        0.16392328323699423        0        
C2        C        0.03125        0.962963        0.16392328323699423        0        
C2        C        0.09375        0.962963        0.16392328323699423        0        
C2        C        0.15625        0.962963        0.16392328323699423        0        
C2        C        0.21875        0.962963        0.16392328323699423        0        
C2        C        0.28125        0.962963        0.16392328323699423        0        
C2        C        0.34375        0.962963        0.16392328323699423        0        
C2        C        0.40625        0.962963        0.16392328323699423        0        
C2        C        0.46875        0.962963        0.16392328323699423        0        
C2        C        0.53125        0.962963        0.16392328323699423        0        
C2        C        0.59375        0.962963        0.16392328323699423        0        
C2        C        0.65625        0.962963        0.16392328323699423        0        
C2        C        0.71875        0.962963        0.16392328323699423        0        
C2        C        0.78125        0.962963        0.16392328323699423        0        
C2        C        0.84375        0.962963        0.16392328323699423        0        
C2        C        0.9062500000000001        0.962963        0.16392328323699423        0        
C2        C        0.9687500000000001        0.962963        0.16392328323699423        0        
C3        C        0.0        0.9814809999999999        0.16392328323699423        0        
C3        C        0.0625        0.9814809999999999        0.16392328323699423        0        
C3        C        0.125        0.9814809999999999        0.16392328323699423        0        
C3        C        0.1875        0.9814809999999999        0.16392328323699423        0        
C3        C        0.25        0.9814809999999999        0.16392328323699423        0        
C3        C        0.3125        0.9814809999999999        0.16392328323699423        0        
C3        C        0.375        0.9814809999999999        0.16392328323699423        0        
C3        C        0.4375        0.9814809999999999        0.16392328323699423        0        
C3        C        0.5        0.9814809999999999        0.16392328323699423        0        
C3        C        0.5625        0.9814809999999999        0.16392328323699423        0        
C3        C        0.625        0.9814809999999999        0.16392328323699423        0        
C3        C        0.6875        0.9814809999999999        0.16392328323699423        0        
C3        C        0.75        0.9814809999999999        0.16392328323699423        0        
C3        C        0.8125        0.9814809999999999        0.16392328323699423        0        
C3        C        0.875        0.9814809999999999        0.16392328323699423        0        
C3        C        0.9375        0.9814809999999999        0.16392328323699423        0        
C4        C        0.03125        0.925925        0.16392328323699423        0        
C4        C        0.09375        0.925925        0.16392328323699423        0        
C4        C        0.15625        0.925925        0.16392328323699423        0        
C4        C        0.21875        0.925925        0.16392328323699423        0        
C4        C        0.28125        0.925925        0.16392328323699423        0        
C4        C        0.34375        0.925925        0.16392328323699423        0        
C4        C        0.40625        0.925925        0.16392328323699423        0        
C4        C        0.46875        0.925925        0.16392328323699423        0        
C4        C        0.53125        0.925925        0.16392328323699423        0        
C4        C        0.59375        0.925925        0.16392328323699423        0        
C4        C        0.65625        0.925925        0.16392328323699423        0        
C4        C        0.71875        0.925925        0.16392328323699423        0        
C4        C        0.78125        0.925925        0.16392328323699423        0        
C4        C        0.84375        0.925925        0.16392328323699423        0        
C4        C        0.9062500000000001        0.925925        0.16392328323699423        0        
C4        C        0.9687500000000001        0.925925        0.16392328323699423        0        
C_FG        C        0.0        0.018519        0.2607442832369943        0.08        
C2        C        0.03125        0.074075        0.2607442832369943        0        
C3        C        0.0        0.092592        0.2607442832369943        0        
C4        C        0.03125        0.037037        0.2607442832369943        0        
C1        C        0.0        0.12963        0.2607442832369943        0        
C2        C        0.03125        0.185185        0.2607442832369943        0        
C_FG        C        0.0        0.203703        0.2607442832369943        0.08        
C4        C        0.03125        0.148148        0.2607442832369943        0        
C1        C        0.0        0.24074099999999998        0.2607442832369943        0        
C2        C        0.03125        0.296297        0.2607442832369943        0        
C3        C        0.0        0.314815        0.2607442832369943        0        
C4        C        0.03125        0.259259        0.2607442832369943        0        
C_FG        C        0.0        0.351852        0.2607442832369943        0.08        
C2        C        0.03125        0.407408        0.2607442832369943        0        
C3        C        0.0        0.42592500000000005        0.2607442832369943        0        
C4        C        0.03125        0.37037        0.2607442832369943        0        
C1        C        0.0        0.46296300000000007        0.2607442832369943        0        
C2        C        0.03125        0.518519        0.2607442832369943        0        
C_FG        C        0.0        0.537037        0.2607442832369943        0.08        
C4        C        0.03125        0.481481        0.2607442832369943        0        
C1        C        0.0        0.574075        0.2607442832369943        0        
C2        C        0.03125        0.62963        0.2607442832369943        0        
C3        C        0.0        0.648148        0.2607442832369943        0        
C4        C        0.03125        0.592592        0.2607442832369943        0        
C1        C        0.0625        0.018519        0.2607442832369943        0        
C2        C        0.09375        0.074075        0.2607442832369943        0        
C3        C        0.0625        0.092592        0.2607442832369943        0        
C4        C        0.09375        0.037037        0.2607442832369943        0        
C1        C        0.0625        0.12963        0.2607442832369943        0        
C2        C        0.09375        0.185185        0.2607442832369943        0        
C3        C        0.0625        0.203703        0.2607442832369943        0        
C4        C        0.09375        0.148148        0.2607442832369943        0        
C1        C        0.0625        0.24074099999999998        0.2607442832369943        0        
C2        C        0.09375        0.296297        0.2607442832369943        0        
C3        C        0.0625        0.314815        0.2607442832369943        0        
C4        C        0.09375        0.259259        0.2607442832369943        0        
C1        C        0.0625        0.351852        0.2607442832369943        0        
C2        C        0.09375        0.407408        0.2607442832369943        0        
C3        C        0.0625        0.42592500000000005        0.2607442832369943        0        
C4        C        0.09375        0.37037        0.2607442832369943        0        
C1        C        0.0625        0.46296300000000007        0.2607442832369943        0        
C2        C        0.09375        0.518519        0.2607442832369943        0        
C3        C        0.0625        0.537037        0.2607442832369943        0        
C4        C        0.09375        0.481481        0.2607442832369943        0        
C1        C        0.0625        0.574075        0.2607442832369943        0        
C2        C        0.09375        0.62963        0.2607442832369943        0        
C3        C        0.0625        0.648148        0.2607442832369943        0        
C4        C        0.09375        0.592592        0.2607442832369943        0        
C1        C        0.125        0.018519        0.2607442832369943        0        
C2        C        0.15625        0.074075        0.2607442832369943        0        
C3        C        0.125        0.092592        0.2607442832369943        0        
C4        C        0.15625        0.037037        0.2607442832369943        0        
C1        C        0.125        0.12963        0.2607442832369943        0        
C2        C        0.15625        0.185185        0.2607442832369943        0        
C3        C        0.125        0.203703        0.2607442832369943        0        
C4        C        0.15625        0.148148        0.2607442832369943        0        
C1        C        0.125        0.24074099999999998        0.2607442832369943        0        
C2        C        0.15625        0.296297        0.2607442832369943        0        
C3        C        0.125        0.314815        0.2607442832369943        0        
C4        C        0.15625        0.259259        0.2607442832369943        0        
C1        C        0.125        0.351852        0.2607442832369943        0        
C2        C        0.15625        0.407408        0.2607442832369943        0        
C3        C        0.125        0.42592500000000005        0.2607442832369943        0        
C4        C        0.15625        0.37037        0.2607442832369943        0        
C1        C        0.125        0.46296300000000007        0.2607442832369943        0        
C2        C        0.15625        0.518519        0.2607442832369943        0        
C3        C        0.125        0.537037        0.2607442832369943        0        
C4        C        0.15625        0.481481        0.2607442832369943        0        
C1        C        0.125        0.574075        0.2607442832369943        0        
C2        C        0.15625        0.62963        0.2607442832369943        0        
C3        C        0.125        0.648148        0.2607442832369943        0        
C4        C        0.15625        0.592592        0.2607442832369943        0        
C_FG        C        0.1875        0.018519        0.2607442832369943        0.08        
C2        C        0.21875        0.074075        0.2607442832369943        0        
C3        C        0.1875        0.092592        0.2607442832369943        0        
C4        C        0.21875        0.037037        0.2607442832369943        0        
C1        C        0.1875        0.12963        0.2607442832369943        0        
C2        C        0.21875        0.185185        0.2607442832369943        0        
C_FG        C        0.1875        0.203703        0.2607442832369943        0.08        
C4        C        0.21875        0.148148        0.2607442832369943        0        
C1        C        0.1875        0.24074099999999998        0.2607442832369943        0        
C2        C        0.21875        0.296297        0.2607442832369943        0        
C3        C        0.1875        0.314815        0.2607442832369943        0        
C4        C        0.21875        0.259259        0.2607442832369943        0        
C_FG        C        0.1875        0.351852        0.2607442832369943        0.08        
C2        C        0.21875        0.407408        0.2607442832369943        0        
C3        C        0.1875        0.42592500000000005        0.2607442832369943        0        
C4        C        0.21875        0.37037        0.2607442832369943        0        
C1        C        0.1875        0.46296300000000007        0.2607442832369943        0        
C2        C        0.21875        0.518519        0.2607442832369943        0        
C_FG        C        0.1875        0.537037        0.2607442832369943        0.08        
C4        C        0.21875        0.481481        0.2607442832369943        0        
C1        C        0.1875        0.574075        0.2607442832369943        0        
C2        C        0.21875        0.62963        0.2607442832369943        0        
C3        C        0.1875        0.648148        0.2607442832369943        0        
C4        C        0.21875        0.592592        0.2607442832369943        0        
C1        C        0.25        0.018519        0.2607442832369943        0        
C2        C        0.28125        0.074075        0.2607442832369943        0        
C3        C        0.25        0.092592        0.2607442832369943        0        
C4        C        0.28125        0.037037        0.2607442832369943        0        
C1        C        0.25        0.12963        0.2607442832369943        0        
C2        C        0.28125        0.185185        0.2607442832369943        0        
C3        C        0.25        0.203703        0.2607442832369943        0        
C4        C        0.28125        0.148148        0.2607442832369943        0        
C1        C        0.25        0.24074099999999998        0.2607442832369943        0        
C2        C        0.28125        0.296297        0.2607442832369943        0        
C3        C        0.25        0.314815        0.2607442832369943        0        
C4        C        0.28125        0.259259        0.2607442832369943        0        
C1        C        0.25        0.351852        0.2607442832369943        0        
C2        C        0.28125        0.407408        0.2607442832369943        0        
C3        C        0.25        0.42592500000000005        0.2607442832369943        0        
C4        C        0.28125        0.37037        0.2607442832369943        0        
C1        C        0.25        0.46296300000000007        0.2607442832369943        0        
C2        C        0.28125        0.518519        0.2607442832369943        0        
C3        C        0.25        0.537037        0.2607442832369943        0        
C4        C        0.28125        0.481481        0.2607442832369943        0        
C1        C        0.25        0.574075        0.2607442832369943        0        
C2        C        0.28125        0.62963        0.2607442832369943        0        
C3        C        0.25        0.648148        0.2607442832369943        0        
C4        C        0.28125        0.592592        0.2607442832369943        0        
C1        C        0.3125        0.018519        0.2607442832369943        0        
C2        C        0.34375        0.074075        0.2607442832369943        0        
C3        C        0.3125        0.092592        0.2607442832369943        0        
C4        C        0.34375        0.037037        0.2607442832369943        0        
C1        C        0.3125        0.12963        0.2607442832369943        0        
C2        C        0.34375        0.185185        0.2607442832369943        0        
C3        C        0.3125        0.203703        0.2607442832369943        0        
C4        C        0.34375        0.148148        0.2607442832369943        0        
C1        C        0.3125        0.24074099999999998        0.2607442832369943        0        
C2        C        0.34375        0.296297        0.2607442832369943        0        
C3        C        0.3125        0.314815        0.2607442832369943        0        
C4        C        0.34375        0.259259        0.2607442832369943        0        
C1        C        0.3125        0.351852        0.2607442832369943        0        
C2        C        0.34375        0.407408        0.2607442832369943        0        
C3        C        0.3125        0.42592500000000005        0.2607442832369943        0        
C4        C        0.34375        0.37037        0.2607442832369943        0        
C1        C        0.3125        0.46296300000000007        0.2607442832369943        0        
C2        C        0.34375        0.518519        0.2607442832369943        0        
C3        C        0.3125        0.537037        0.2607442832369943        0        
C4        C        0.34375        0.481481        0.2607442832369943        0        
C1        C        0.3125        0.574075        0.2607442832369943        0        
C2        C        0.34375        0.62963        0.2607442832369943        0        
C3        C        0.3125        0.648148        0.2607442832369943        0        
C4        C        0.34375        0.592592        0.2607442832369943        0        
C_FG        C        0.375        0.018519        0.2607442832369943        0.08        
C2        C        0.40625        0.074075        0.2607442832369943        0        
C3        C        0.375        0.092592        0.2607442832369943        0        
C4        C        0.40625        0.037037        0.2607442832369943        0        
C1        C        0.375        0.12963        0.2607442832369943        0        
C2        C        0.40625        0.185185        0.2607442832369943        0        
C_FG        C        0.375        0.203703        0.2607442832369943        0.08        
C4        C        0.40625        0.148148        0.2607442832369943        0        
C1        C        0.375        0.24074099999999998        0.2607442832369943        0        
C2        C        0.40625        0.296297        0.2607442832369943        0        
C3        C        0.375        0.314815        0.2607442832369943        0        
C4        C        0.40625        0.259259        0.2607442832369943        0        
C_FG        C        0.375        0.351852        0.2607442832369943        0.08        
C2        C        0.40625        0.407408        0.2607442832369943        0        
C3        C        0.375        0.42592500000000005        0.2607442832369943        0        
C4        C        0.40625        0.37037        0.2607442832369943        0        
C1        C        0.375        0.46296300000000007        0.2607442832369943        0        
C2        C        0.40625        0.518519        0.2607442832369943        0        
C_FG        C        0.375        0.537037        0.2607442832369943        0.08        
C4        C        0.40625        0.481481        0.2607442832369943        0        
C1        C        0.375        0.574075        0.2607442832369943        0        
C2        C        0.40625        0.62963        0.2607442832369943        0        
C3        C        0.375        0.648148        0.2607442832369943        0        
C4        C        0.40625        0.592592        0.2607442832369943        0        
C1        C        0.4375        0.018519        0.2607442832369943        0        
C2        C        0.46875        0.074075        0.2607442832369943        0        
C3        C        0.4375        0.092592        0.2607442832369943        0        
C4        C        0.46875        0.037037        0.2607442832369943        0        
C1        C        0.4375        0.12963        0.2607442832369943        0        
C2        C        0.46875        0.185185        0.2607442832369943        0        
C3        C        0.4375        0.203703        0.2607442832369943        0        
C4        C        0.46875        0.148148        0.2607442832369943        0        
C1        C        0.4375        0.24074099999999998        0.2607442832369943        0        
C2        C        0.46875        0.296297        0.2607442832369943        0        
C3        C        0.4375        0.314815        0.2607442832369943        0        
C4        C        0.46875        0.259259        0.2607442832369943        0        
C1        C        0.4375        0.351852        0.2607442832369943        0        
C2        C        0.46875        0.407408        0.2607442832369943        0        
C3        C        0.4375        0.42592500000000005        0.2607442832369943        0        
C4        C        0.46875        0.37037        0.2607442832369943        0        
C1        C        0.4375        0.46296300000000007        0.2607442832369943        0        
C2        C        0.46875        0.518519        0.2607442832369943        0        
C3        C        0.4375        0.537037        0.2607442832369943        0        
C4        C        0.46875        0.481481        0.2607442832369943        0        
C1        C        0.4375        0.574075        0.2607442832369943        0        
C2        C        0.46875        0.62963        0.2607442832369943        0        
C3        C        0.4375        0.648148        0.2607442832369943        0        
C4        C        0.46875        0.592592        0.2607442832369943        0        
C1        C        0.5        0.018519        0.2607442832369943        0        
C2        C        0.53125        0.074075        0.2607442832369943        0        
C3        C        0.5        0.092592        0.2607442832369943        0        
C4        C        0.53125        0.037037        0.2607442832369943        0        
C1        C        0.5        0.12963        0.2607442832369943        0        
C2        C        0.53125        0.185185        0.2607442832369943        0        
C3        C        0.5        0.203703        0.2607442832369943        0        
C4        C        0.53125        0.148148        0.2607442832369943        0        
C1        C        0.5        0.24074099999999998        0.2607442832369943        0        
C2        C        0.53125        0.296297        0.2607442832369943        0        
C3        C        0.5        0.314815        0.2607442832369943        0        
C4        C        0.53125        0.259259        0.2607442832369943        0        
C1        C        0.5        0.351852        0.2607442832369943        0        
C2        C        0.53125        0.407408        0.2607442832369943        0        
C3        C        0.5        0.42592500000000005        0.2607442832369943        0        
C4        C        0.53125        0.37037        0.2607442832369943        0        
C1        C        0.5        0.46296300000000007        0.2607442832369943        0        
C2        C        0.53125        0.518519        0.2607442832369943        0        
C3        C        0.5        0.537037        0.2607442832369943        0        
C4        C        0.53125        0.481481        0.2607442832369943        0        
C1        C        0.5        0.574075        0.2607442832369943        0        
C2        C        0.53125        0.62963        0.2607442832369943        0        
C3        C        0.5        0.648148        0.2607442832369943        0        
C4        C        0.53125        0.592592        0.2607442832369943        0        
C_FG        C        0.5625        0.018519        0.2607442832369943        0.08        
C2        C        0.59375        0.074075        0.2607442832369943        0        
C3        C        0.5625        0.092592        0.2607442832369943        0        
C4        C        0.59375        0.037037        0.2607442832369943        0        
C1        C        0.5625        0.12963        0.2607442832369943        0        
C2        C        0.59375        0.185185        0.2607442832369943        0        
C_FG        C        0.5625        0.203703        0.2607442832369943        0.08        
C4        C        0.59375        0.148148        0.2607442832369943        0        
C1        C        0.5625        0.24074099999999998        0.2607442832369943        0        
C2        C        0.59375        0.296297        0.2607442832369943        0        
C3        C        0.5625        0.314815        0.2607442832369943        0        
C4        C        0.59375        0.259259        0.2607442832369943        0        
C_FG        C        0.5625        0.351852        0.2607442832369943        0.08        
C2        C        0.59375        0.407408        0.2607442832369943        0        
C3        C        0.5625        0.42592500000000005        0.2607442832369943        0        
C4        C        0.59375        0.37037        0.2607442832369943        0        
C1        C        0.5625        0.46296300000000007        0.2607442832369943        0        
C2        C        0.59375        0.518519        0.2607442832369943        0        
C_FG        C        0.5625        0.537037        0.2607442832369943        0.08        
C4        C        0.59375        0.481481        0.2607442832369943        0        
C1        C        0.5625        0.574075        0.2607442832369943        0        
C2        C        0.59375        0.62963        0.2607442832369943        0        
C3        C        0.5625        0.648148        0.2607442832369943        0        
C4        C        0.59375        0.592592        0.2607442832369943        0        
C1        C        0.625        0.018519        0.2607442832369943        0        
C2        C        0.65625        0.074075        0.2607442832369943        0        
C3        C        0.625        0.092592        0.2607442832369943        0        
C4        C        0.65625        0.037037        0.2607442832369943        0        
C1        C        0.625        0.12963        0.2607442832369943        0        
C2        C        0.65625        0.185185        0.2607442832369943        0        
C3        C        0.625        0.203703        0.2607442832369943        0        
C4        C        0.65625        0.148148        0.2607442832369943        0        
C1        C        0.625        0.24074099999999998        0.2607442832369943        0        
C2        C        0.65625        0.296297        0.2607442832369943        0        
C3        C        0.625        0.314815        0.2607442832369943        0        
C4        C        0.65625        0.259259        0.2607442832369943        0        
C1        C        0.625        0.351852        0.2607442832369943        0        
C2        C        0.65625        0.407408        0.2607442832369943        0        
C3        C        0.625        0.42592500000000005        0.2607442832369943        0        
C4        C        0.65625        0.37037        0.2607442832369943        0        
C1        C        0.625        0.46296300000000007        0.2607442832369943        0        
C2        C        0.65625        0.518519        0.2607442832369943        0        
C3        C        0.625        0.537037        0.2607442832369943        0        
C4        C        0.65625        0.481481        0.2607442832369943        0        
C1        C        0.625        0.574075        0.2607442832369943        0        
C2        C        0.65625        0.62963        0.2607442832369943        0        
C3        C        0.625        0.648148        0.2607442832369943        0        
C4        C        0.65625        0.592592        0.2607442832369943        0        
C1        C        0.6875        0.018519        0.2607442832369943        0        
C2        C        0.71875        0.074075        0.2607442832369943        0        
C3        C        0.6875        0.092592        0.2607442832369943        0        
C4        C        0.71875        0.037037        0.2607442832369943        0        
C1        C        0.6875        0.12963        0.2607442832369943        0        
C2        C        0.71875        0.185185        0.2607442832369943        0        
C3        C        0.6875        0.203703        0.2607442832369943        0        
C4        C        0.71875        0.148148        0.2607442832369943        0        
C1        C        0.6875        0.24074099999999998        0.2607442832369943        0        
C2        C        0.71875        0.296297        0.2607442832369943        0        
C3        C        0.6875        0.314815        0.2607442832369943        0        
C4        C        0.71875        0.259259        0.2607442832369943        0        
C1        C        0.6875        0.351852        0.2607442832369943        0        
C2        C        0.71875        0.407408        0.2607442832369943        0        
C3        C        0.6875        0.42592500000000005        0.2607442832369943        0        
C4        C        0.71875        0.37037        0.2607442832369943        0        
C1        C        0.6875        0.46296300000000007        0.2607442832369943        0        
C2        C        0.71875        0.518519        0.2607442832369943        0        
C3        C        0.6875        0.537037        0.2607442832369943        0        
C4        C        0.71875        0.481481        0.2607442832369943        0        
C1        C        0.6875        0.574075        0.2607442832369943        0        
C2        C        0.71875        0.62963        0.2607442832369943        0        
C3        C        0.6875        0.648148        0.2607442832369943        0        
C4        C        0.71875        0.592592        0.2607442832369943        0        
C_FG        C        0.75        0.018519        0.2607442832369943        0.08        
C2        C        0.78125        0.074075        0.2607442832369943        0        
C3        C        0.75        0.092592        0.2607442832369943        0        
C4        C        0.78125        0.037037        0.2607442832369943        0        
C1        C        0.75        0.12963        0.2607442832369943        0        
C2        C        0.78125        0.185185        0.2607442832369943        0        
C_FG        C        0.75        0.203703        0.2607442832369943        0.08        
C4        C        0.78125        0.148148        0.2607442832369943        0        
C1        C        0.75        0.24074099999999998        0.2607442832369943        0        
C2        C        0.78125        0.296297        0.2607442832369943        0        
C3        C        0.75        0.314815        0.2607442832369943        0        
C4        C        0.78125        0.259259        0.2607442832369943        0        
C_FG        C        0.75        0.351852        0.2607442832369943        0.08        
C2        C        0.78125        0.407408        0.2607442832369943        0        
C3        C        0.75        0.42592500000000005        0.2607442832369943        0        
C4        C        0.78125        0.37037        0.2607442832369943        0        
C1        C        0.75        0.46296300000000007        0.2607442832369943        0        
C2        C        0.78125        0.518519        0.2607442832369943        0        
C_FG        C        0.75        0.537037        0.2607442832369943        0.08        
C4        C        0.78125        0.481481        0.2607442832369943        0        
C1        C        0.75        0.574075        0.2607442832369943        0        
C2        C        0.78125        0.62963        0.2607442832369943        0        
C3        C        0.75        0.648148        0.2607442832369943        0        
C4        C        0.78125        0.592592        0.2607442832369943        0        
C1        C        0.8125        0.018519        0.2607442832369943        0        
C2        C        0.84375        0.074075        0.2607442832369943        0        
C3        C        0.8125        0.092592        0.2607442832369943        0        
C4        C        0.84375        0.037037        0.2607442832369943        0        
C1        C        0.8125        0.12963        0.2607442832369943        0        
C2        C        0.84375        0.185185        0.2607442832369943        0        
C3        C        0.8125        0.203703        0.2607442832369943        0        
C4        C        0.84375        0.148148        0.2607442832369943        0        
C1        C        0.8125        0.24074099999999998        0.2607442832369943        0        
C2        C        0.84375        0.296297        0.2607442832369943        0        
C3        C        0.8125        0.314815        0.2607442832369943        0        
C4        C        0.84375        0.259259        0.2607442832369943        0        
C1        C        0.8125        0.351852        0.2607442832369943        0        
C2        C        0.84375        0.407408        0.2607442832369943        0        
C3        C        0.8125        0.42592500000000005        0.2607442832369943        0        
C4        C        0.84375        0.37037        0.2607442832369943        0        
C1        C        0.8125        0.46296300000000007        0.2607442832369943        0        
C2        C        0.84375        0.518519        0.2607442832369943        0        
C3        C        0.8125        0.537037        0.2607442832369943        0        
C4        C        0.84375        0.481481        0.2607442832369943        0        
C1        C        0.8125        0.574075        0.2607442832369943        0        
C2        C        0.84375        0.62963        0.2607442832369943        0        
C3        C        0.8125        0.648148        0.2607442832369943        0        
C4        C        0.84375        0.592592        0.2607442832369943        0        
C1        C        0.875        0.018519        0.2607442832369943        0        
C2        C        0.9062500000000001        0.074075        0.2607442832369943        0        
C3        C        0.875        0.092592        0.2607442832369943        0        
C4        C        0.9062500000000001        0.037037        0.2607442832369943        0        
C1        C        0.875        0.12963        0.2607442832369943        0        
C2        C        0.9062500000000001        0.185185        0.2607442832369943        0        
C3        C        0.875        0.203703        0.2607442832369943        0        
C4        C        0.9062500000000001        0.148148        0.2607442832369943        0        
C1        C        0.875        0.24074099999999998        0.2607442832369943        0        
C2        C        0.9062500000000001        0.296297        0.2607442832369943        0        
C3        C        0.875        0.314815        0.2607442832369943        0        
C4        C        0.9062500000000001        0.259259        0.2607442832369943        0        
C1        C        0.875        0.351852        0.2607442832369943        0        
C2        C        0.9062500000000001        0.407408        0.2607442832369943        0        
C3        C        0.875        0.42592500000000005        0.2607442832369943        0        
C4        C        0.9062500000000001        0.37037        0.2607442832369943        0        
C1        C        0.875        0.46296300000000007        0.2607442832369943        0        
C2        C        0.9062500000000001        0.518519        0.2607442832369943        0        
C3        C        0.875        0.537037        0.2607442832369943        0        
C4        C        0.9062500000000001        0.481481        0.2607442832369943        0        
C1        C        0.875        0.574075        0.2607442832369943        0        
C2        C        0.9062500000000001        0.62963        0.2607442832369943        0        
C3        C        0.875        0.648148        0.2607442832369943        0        
C4        C        0.9062500000000001        0.592592        0.2607442832369943        0        
C_FG        C        0.9375        0.018519        0.2607442832369943        0.08        
C2        C        0.9687500000000001        0.074075        0.2607442832369943        0        
C3        C        0.9375        0.092592        0.2607442832369943        0        
C4        C        0.9687500000000001        0.037037        0.2607442832369943        0        
C1        C        0.9375        0.12963        0.2607442832369943        0        
C2        C        0.9687500000000001        0.185185        0.2607442832369943        0        
C_FG        C        0.9375        0.203703        0.2607442832369943        0.08        
C4        C        0.9687500000000001        0.148148        0.2607442832369943        0        
C1        C        0.9375        0.24074099999999998        0.2607442832369943        0        
C2        C        0.9687500000000001        0.296297        0.2607442832369943        0        
C3        C        0.9375        0.314815        0.2607442832369943        0        
C4        C        0.9687500000000001        0.259259        0.2607442832369943        0        
C_FG        C        0.9375        0.351852        0.2607442832369943        0.08        
C2        C        0.9687500000000001        0.407408        0.2607442832369943        0        
C3        C        0.9375        0.42592500000000005        0.2607442832369943        0        
C4        C        0.9687500000000001        0.37037        0.2607442832369943        0        
C1        C        0.9375        0.46296300000000007        0.2607442832369943        0        
C2        C        0.9687500000000001        0.518519        0.2607442832369943        0        
C_FG        C        0.9375        0.537037        0.2607442832369943        0.08        
C4        C        0.9687500000000001        0.481481        0.2607442832369943        0        
C1        C        0.9375        0.574075        0.2607442832369943        0        
C2        C        0.9687500000000001        0.62963        0.2607442832369943        0        
C3        C        0.9375        0.648148        0.2607442832369943        0        
C4        C        0.9687500000000001        0.592592        0.2607442832369943        0        
C_FG        C        0.0        0.685186        0.2607442832369943        0.08        
C1        C        0.0625        0.685186        0.2607442832369943        0        
C1        C        0.125        0.685186        0.2607442832369943        0        
C_FG        C        0.1875        0.685186        0.2607442832369943        0.08        
C1        C        0.25        0.685186        0.2607442832369943        0        
C1        C        0.3125        0.685186        0.2607442832369943        0        
C_FG        C        0.375        0.685186        0.2607442832369943        0.08        
C1        C        0.4375        0.685186        0.2607442832369943        0        
C1        C        0.5        0.685186        0.2607442832369943        0        
C_FG        C        0.5625        0.685186        0.2607442832369943        0.08        
C1        C        0.625        0.685186        0.2607442832369943        0        
C1        C        0.6875        0.685186        0.2607442832369943        0        
C_FG        C        0.75        0.685186        0.2607442832369943        0.08        
C1        C        0.8125        0.685186        0.2607442832369943        0        
C1        C        0.875        0.685186        0.2607442832369943        0        
C_FG        C        0.9375        0.685186        0.2607442832369943        0.08        
C2        C        0.03125        0.740741        0.2607442832369943        0        
C2        C        0.09375        0.740741        0.2607442832369943        0        
C2        C        0.15625        0.740741        0.2607442832369943        0        
C2        C        0.21875        0.740741        0.2607442832369943        0        
C2        C        0.28125        0.740741        0.2607442832369943        0        
C2        C        0.34375        0.740741        0.2607442832369943        0        
C2        C        0.40625        0.740741        0.2607442832369943        0        
C2        C        0.46875        0.740741        0.2607442832369943        0        
C2        C        0.53125        0.740741        0.2607442832369943        0        
C2        C        0.59375        0.740741        0.2607442832369943        0        
C2        C        0.65625        0.740741        0.2607442832369943        0        
C2        C        0.71875        0.740741        0.2607442832369943        0        
C2        C        0.78125        0.740741        0.2607442832369943        0        
C2        C        0.84375        0.740741        0.2607442832369943        0        
C2        C        0.9062500000000001        0.740741        0.2607442832369943        0        
C2        C        0.9687500000000001        0.740741        0.2607442832369943        0        
C3        C        0.0        0.759259        0.2607442832369943        0        
C3        C        0.0625        0.759259        0.2607442832369943        0        
C3        C        0.125        0.759259        0.2607442832369943        0        
C3        C        0.1875        0.759259        0.2607442832369943        0        
C3        C        0.25        0.759259        0.2607442832369943        0        
C3        C        0.3125        0.759259        0.2607442832369943        0        
C3        C        0.375        0.759259        0.2607442832369943        0        
C3        C        0.4375        0.759259        0.2607442832369943        0        
C3        C        0.5        0.759259        0.2607442832369943        0        
C3        C        0.5625        0.759259        0.2607442832369943        0        
C3        C        0.625        0.759259        0.2607442832369943        0        
C3        C        0.6875        0.759259        0.2607442832369943        0        
C3        C        0.75        0.759259        0.2607442832369943        0        
C3        C        0.8125        0.759259        0.2607442832369943        0        
C3        C        0.875        0.759259        0.2607442832369943        0        
C3        C        0.9375        0.759259        0.2607442832369943        0        
C4        C        0.03125        0.703703        0.2607442832369943        0        
C4        C        0.09375        0.703703        0.2607442832369943        0        
C4        C        0.15625        0.703703        0.2607442832369943        0        
C4        C        0.21875        0.703703        0.2607442832369943        0        
C4        C        0.28125        0.703703        0.2607442832369943        0        
C4        C        0.34375        0.703703        0.2607442832369943        0        
C4        C        0.40625        0.703703        0.2607442832369943        0        
C4        C        0.46875        0.703703        0.2607442832369943        0        
C4        C        0.53125        0.703703        0.2607442832369943        0        
C4        C        0.59375        0.703703        0.2607442832369943        0        
C4        C        0.65625        0.703703        0.2607442832369943        0        
C4        C        0.71875        0.703703        0.2607442832369943        0        
C4        C        0.78125        0.703703        0.2607442832369943        0        
C4        C        0.84375        0.703703        0.2607442832369943        0        
C4        C        0.9062500000000001        0.703703        0.2607442832369943        0        
C4        C        0.9687500000000001        0.703703        0.2607442832369943        0        
C1        C        0.0        0.796297        0.2607442832369943        0        
C1        C        0.0625        0.796297        0.2607442832369943        0        
C1        C        0.125        0.796297        0.2607442832369943        0        
C1        C        0.1875        0.796297        0.2607442832369943        0        
C1        C        0.25        0.796297        0.2607442832369943        0        
C1        C        0.3125        0.796297        0.2607442832369943        0        
C1        C        0.375        0.796297        0.2607442832369943        0        
C1        C        0.4375        0.796297        0.2607442832369943        0        
C1        C        0.5        0.796297        0.2607442832369943        0        
C1        C        0.5625        0.796297        0.2607442832369943        0        
C1        C        0.625        0.796297        0.2607442832369943        0        
C1        C        0.6875        0.796297        0.2607442832369943        0        
C1        C        0.75        0.796297        0.2607442832369943        0        
C1        C        0.8125        0.796297        0.2607442832369943        0        
C1        C        0.875        0.796297        0.2607442832369943        0        
C1        C        0.9375        0.796297        0.2607442832369943        0        
C2        C        0.03125        0.851852        0.2607442832369943        0        
C2        C        0.09375        0.851852        0.2607442832369943        0        
C2        C        0.15625        0.851852        0.2607442832369943        0        
C2        C        0.21875        0.851852        0.2607442832369943        0        
C2        C        0.28125        0.851852        0.2607442832369943        0        
C2        C        0.34375        0.851852        0.2607442832369943        0        
C2        C        0.40625        0.851852        0.2607442832369943        0        
C2        C        0.46875        0.851852        0.2607442832369943        0        
C2        C        0.53125        0.851852        0.2607442832369943        0        
C2        C        0.59375        0.851852        0.2607442832369943        0        
C2        C        0.65625        0.851852        0.2607442832369943        0        
C2        C        0.71875        0.851852        0.2607442832369943        0        
C2        C        0.78125        0.851852        0.2607442832369943        0        
C2        C        0.84375        0.851852        0.2607442832369943        0        
C2        C        0.9062500000000001        0.851852        0.2607442832369943        0        
C2        C        0.9687500000000001        0.851852        0.2607442832369943        0        
C_FG        C        0.0        0.87037        0.2607442832369943        0.08        
C3        C        0.0625        0.87037        0.2607442832369943        0        
C3        C        0.125        0.87037        0.2607442832369943        0        
C_FG        C        0.1875        0.87037        0.2607442832369943        0.08        
C3        C        0.25        0.87037        0.2607442832369943        0        
C3        C        0.3125        0.87037        0.2607442832369943        0        
C_FG        C        0.375        0.87037        0.2607442832369943        0.08        
C3        C        0.4375        0.87037        0.2607442832369943        0        
C3        C        0.5        0.87037        0.2607442832369943        0        
C_FG        C        0.5625        0.87037        0.2607442832369943        0.08        
C3        C        0.625        0.87037        0.2607442832369943        0        
C3        C        0.6875        0.87037        0.2607442832369943        0        
C_FG        C        0.75        0.87037        0.2607442832369943        0.08        
C3        C        0.8125        0.87037        0.2607442832369943        0        
C3        C        0.875        0.87037        0.2607442832369943        0        
C_FG        C        0.9375        0.87037        0.2607442832369943        0.08        
C4        C        0.03125        0.814814        0.2607442832369943        0        
C4        C        0.09375        0.814814        0.2607442832369943        0        
C4        C        0.15625        0.814814        0.2607442832369943        0        
C4        C        0.21875        0.814814        0.2607442832369943        0        
C4        C        0.28125        0.814814        0.2607442832369943        0        
C4        C        0.34375        0.814814        0.2607442832369943        0        
C4        C        0.40625        0.814814        0.2607442832369943        0        
C4        C        0.46875        0.814814        0.2607442832369943        0        
C4        C        0.53125        0.814814        0.2607442832369943        0        
C4        C        0.59375        0.814814        0.2607442832369943        0        
C4        C        0.65625        0.814814        0.2607442832369943        0        
C4        C        0.71875        0.814814        0.2607442832369943        0        
C4        C        0.78125        0.814814        0.2607442832369943        0        
C4        C        0.84375        0.814814        0.2607442832369943        0        
C4        C        0.9062500000000001        0.814814        0.2607442832369943        0        
C4        C        0.9687500000000001        0.814814        0.2607442832369943        0        
C1        C        0.0        0.907408        0.2607442832369943        0        
C1        C        0.0625        0.907408        0.2607442832369943        0        
C1        C        0.125        0.907408        0.2607442832369943        0        
C1        C        0.1875        0.907408        0.2607442832369943        0        
C1        C        0.25        0.907408        0.2607442832369943        0        
C1        C        0.3125        0.907408        0.2607442832369943        0        
C1        C        0.375        0.907408        0.2607442832369943        0        
C1        C        0.4375        0.907408        0.2607442832369943        0        
C1        C        0.5        0.907408        0.2607442832369943        0        
C1        C        0.5625        0.907408        0.2607442832369943        0        
C1        C        0.625        0.907408        0.2607442832369943        0        
C1        C        0.6875        0.907408        0.2607442832369943        0        
C1        C        0.75        0.907408        0.2607442832369943        0        
C1        C        0.8125        0.907408        0.2607442832369943        0        
C1        C        0.875        0.907408        0.2607442832369943        0        
C1        C        0.9375        0.907408        0.2607442832369943        0        
C2        C        0.03125        0.962963        0.2607442832369943        0        
C2        C        0.09375        0.962963        0.2607442832369943        0        
C2        C        0.15625        0.962963        0.2607442832369943        0        
C2        C        0.21875        0.962963        0.2607442832369943        0        
C2        C        0.28125        0.962963        0.2607442832369943        0        
C2        C        0.34375        0.962963        0.2607442832369943        0        
C2        C        0.40625        0.962963        0.2607442832369943        0        
C2        C        0.46875        0.962963        0.2607442832369943        0        
C2        C        0.53125        0.962963        0.2607442832369943        0        
C2        C        0.59375        0.962963        0.2607442832369943        0        
C2        C        0.65625        0.962963        0.2607442832369943        0        
C2        C        0.71875        0.962963        0.2607442832369943        0        
C2        C        0.78125        0.962963        0.2607442832369943        0        
C2        C        0.84375        0.962963        0.2607442832369943        0        
C2        C        0.9062500000000001        0.962963        0.2607442832369943        0        
C2        C        0.9687500000000001        0.962963        0.2607442832369943        0        
C3        C        0.0        0.9814809999999999        0.2607442832369943        0        
C3        C        0.0625        0.9814809999999999        0.2607442832369943        0        
C3        C        0.125        0.9814809999999999        0.2607442832369943        0        
C3        C        0.1875        0.9814809999999999        0.2607442832369943        0        
C3        C        0.25        0.9814809999999999        0.2607442832369943        0        
C3        C        0.3125        0.9814809999999999        0.2607442832369943        0        
C3        C        0.375        0.9814809999999999        0.2607442832369943        0        
C3        C        0.4375        0.9814809999999999        0.2607442832369943        0        
C3        C        0.5        0.9814809999999999        0.2607442832369943        0        
C3        C        0.5625        0.9814809999999999        0.2607442832369943        0        
C3        C        0.625        0.9814809999999999        0.2607442832369943        0        
C3        C        0.6875        0.9814809999999999        0.2607442832369943        0        
C3        C        0.75        0.9814809999999999        0.2607442832369943        0        
C3        C        0.8125        0.9814809999999999        0.2607442832369943        0        
C3        C        0.875        0.9814809999999999        0.2607442832369943        0        
C3        C        0.9375        0.9814809999999999        0.2607442832369943        0        
C4        C        0.03125        0.925925        0.2607442832369943        0        
C4        C        0.09375        0.925925        0.2607442832369943        0        
C4        C        0.15625        0.925925        0.2607442832369943        0        
C4        C        0.21875        0.925925        0.2607442832369943        0        
C4        C        0.28125        0.925925        0.2607442832369943        0        
C4        C        0.34375        0.925925        0.2607442832369943        0        
C4        C        0.40625        0.925925        0.2607442832369943        0        
C4        C        0.46875        0.925925        0.2607442832369943        0        
C4        C        0.53125        0.925925        0.2607442832369943        0        
C4        C        0.59375        0.925925        0.2607442832369943        0        
C4        C        0.65625        0.925925        0.2607442832369943        0        
C4        C        0.71875        0.925925        0.2607442832369943        0        
C4        C        0.78125        0.925925        0.2607442832369943        0        
C4        C        0.84375        0.925925        0.2607442832369943        0        
C4        C        0.9062500000000001        0.925925        0.2607442832369943        0        
C4        C        0.9687500000000001        0.925925        0.2607442832369943        0        
C_COOH        C        0.0        0.018519        0.02317164739884393        0.55        
C_COOH        C        0.0        0.203703        0.02317164739884393        0.55        
C_COOH        C        0.0        0.351852        0.02317164739884393        0.55        
C_COOH        C        0.0        0.537037        0.02317164739884393        0.55        
C_COOH        C        0.1875        0.018519        0.02317164739884393        0.55        
C_COOH        C        0.1875        0.203703        0.02317164739884393        0.55        
C_COOH        C        0.1875        0.351852        0.02317164739884393        0.55        
C_COOH        C        0.1875        0.537037        0.02317164739884393        0.55        
C_COOH        C        0.375        0.018519        0.02317164739884393        0.55        
C_COOH        C        0.375        0.203703        0.02317164739884393        0.55        
C_COOH        C        0.375        0.351852        0.02317164739884393        0.55        
C_COOH        C        0.375        0.537037        0.02317164739884393        0.55        
C_COOH        C        0.5625        0.018519        0.02317164739884393        0.55        
C_COOH        C        0.5625        0.203703        0.02317164739884393        0.55        
C_COOH        C        0.5625        0.351852        0.02317164739884393        0.55        
C_COOH        C        0.5625        0.537037        0.02317164739884393        0.55        
C_COOH        C        0.75        0.018519        0.02317164739884393        0.55        
C_COOH        C        0.75        0.203703        0.02317164739884393        0.55        
C_COOH        C        0.75        0.351852        0.02317164739884393        0.55        
C_COOH        C        0.75        0.537037        0.02317164739884393        0.55        
C_COOH        C        0.9375        0.018519        0.02317164739884393        0.55        
C_COOH        C        0.9375        0.203703        0.02317164739884393        0.55        
C_COOH        C        0.9375        0.351852        0.02317164739884393        0.55        
C_COOH        C        0.9375        0.537037        0.02317164739884393        0.55        
C_COOH        C        0.0        0.685186        0.02317164739884393        0.55        
C_COOH        C        0.1875        0.685186        0.02317164739884393        0.55        
C_COOH        C        0.375        0.685186        0.02317164739884393        0.55        
C_COOH        C        0.5625        0.685186        0.02317164739884393        0.55        
C_COOH        C        0.75        0.685186        0.02317164739884393        0.55        
C_COOH        C        0.9375        0.685186        0.02317164739884393        0.55        
C_COOH        C        0.0        0.87037        0.02317164739884393        0.55        
C_COOH        C        0.1875        0.87037        0.02317164739884393        0.55        
C_COOH        C        0.375        0.87037        0.02317164739884393        0.55        
C_COOH        C        0.5625        0.87037        0.02317164739884393        0.55        
C_COOH        C        0.75        0.87037        0.02317164739884393        0.55        
C_COOH        C        0.9375        0.87037        0.02317164739884393        0.55        
C_COOH        C        0.0        0.018519        0.3046745375722543        0.55        
C_COOH        C        0.0        0.203703        0.3046745375722543        0.55        
C_COOH        C        0.0        0.351852        0.3046745375722543        0.55        
C_COOH        C        0.0        0.537037        0.3046745375722543        0.55        
C_COOH        C        0.1875        0.018519        0.3046745375722543        0.55        
C_COOH        C        0.1875        0.203703        0.3046745375722543        0.55        
C_COOH        C        0.1875        0.351852        0.3046745375722543        0.55        
C_COOH        C        0.1875        0.537037        0.3046745375722543        0.55        
C_COOH        C        0.375        0.018519        0.3046745375722543        0.55        
C_COOH        C        0.375        0.203703        0.3046745375722543        0.55        
C_COOH        C        0.375        0.351852        0.3046745375722543        0.55        
C_COOH        C        0.375        0.537037        0.3046745375722543        0.55        
C_COOH        C        0.5625        0.018519        0.3046745375722543        0.55        
C_COOH        C        0.5625        0.203703        0.3046745375722543        0.55        
C_COOH        C        0.5625        0.351852        0.3046745375722543        0.55        
C_COOH        C        0.5625        0.537037        0.3046745375722543        0.55        
C_COOH        C        0.75        0.018519        0.3046745375722543        0.55        
C_COOH        C        0.75        0.203703        0.3046745375722543        0.55        
C_COOH        C        0.75        0.351852        0.3046745375722543        0.55        
C_COOH        C        0.75        0.537037        0.3046745375722543        0.55        
C_COOH        C        0.9375        0.018519        0.3046745375722543        0.55        
C_COOH        C        0.9375        0.203703        0.3046745375722543        0.55        
C_COOH        C        0.9375        0.351852        0.3046745375722543        0.55        
C_COOH        C        0.9375        0.537037        0.3046745375722543        0.55        
C_COOH        C        0.0        0.685186        0.3046745375722543        0.55        
C_COOH        C        0.1875        0.685186        0.3046745375722543        0.55        
C_COOH        C        0.375        0.685186        0.3046745375722543        0.55        
C_COOH        C        0.5625        0.685186        0.3046745375722543        0.55        
C_COOH        C        0.75        0.685186        0.3046745375722543        0.55        
C_COOH        C        0.9375        0.685186        0.3046745375722543        0.55        
C_COOH        C        0.0        0.87037        0.3046745375722543        0.55        
C_COOH        C        0.1875        0.87037        0.3046745375722543        0.55        
C_COOH        C        0.375        0.87037        0.3046745375722543        0.55        
C_COOH        C        0.5625        0.87037        0.3046745375722543        0.55        
C_COOH        C        0.75        0.87037        0.3046745375722543        0.55        
C_COOH        C        0.9375        0.87037        0.3046745375722543        0.55        
O1_COOH        O        0.028484719714493        0.02284612001701314        0.010597687861271674        -0.5        
O1_COOH        O        0.009741502824841486        0.23152091059887142        0.010597687861271674        -0.5        
O1_COOH        O        0.005031909924191754        0.38095808535168246        0.010597687861271674        -0.5        
O1_COOH        O        0.024779352492007942        0.5520944871297649        0.010597687861271674        -0.5        
O1_COOH        O        0.19199173272173548        0.04771807579215709        0.010597687861271674        -0.5        
O1_COOH        O        0.1709219199431519        0.2278732065062565        0.010597687861271674        -0.5        
O1_COOH        O        0.20409776865034415        0.37600796157569605        0.010597687861271674        -0.5        
O1_COOH        O        0.18006863738078546        0.5655965310609065        0.010597687861271674        -0.5        
O1_COOH        O        0.4020891304757812        0.028542166156694398        0.010597687861271674        -0.5        
O1_COOH        O        0.3682554742509826        0.23244162019557962        0.010597687861271674        -0.5        
O1_COOH        O        0.40326295054665817        0.3575077383918378        0.010597687861271674        -0.5        
O1_COOH        O        0.3891498054945895        0.5627826326661436        0.010597687861271674        -0.5        
O1_COOH        O        0.5445758299255368        0.041654507861599216        0.010597687861271674        -0.5        
O1_COOH        O        0.5605085315163544        0.23319316284970049        0.010597687861271674        -0.5        
O1_COOH        O        0.5755264143271054        0.3782151021308287        0.010597687861271674        -0.5        
O1_COOH        O        0.584638876818072        0.5559392171360834        0.010597687861271674        -0.5        
O1_COOH        O        0.7254438217465793        0.03395700424297011        0.010597687861271674        -0.5        
O1_COOH        O        0.7783363301799077        0.20895754249789011        0.010597687861271674        -0.5        
O1_COOH        O        0.7731327363903234        0.36945524725824797        0.010597687861271674        -0.5        
O1_COOH        O        0.7214703501346224        0.5410400224762192        0.010597687861271674        -0.5        
O1_COOH        O        0.9508112723784812        0.04473170965748583        0.010597687861271674        -0.5        
O1_COOH        O        0.9567379341681884        0.22569839020356722        0.010597687861271674        -0.5        
O1_COOH        O        0.9660681176103769        0.3555546131942689        0.010597687861271674        -0.5        
O1_COOH        O        0.9287236973272092        0.5651914525583309        0.010597687861271674        -0.5        
O1_COOH        O        -0.023356284814225466        0.7024753447799816        0.010597687861271674        -0.5        
O1_COOH        O        0.20757288080584885        0.7063804593219819        0.010597687861271674        -0.5        
O1_COOH        O        0.3979655540466622        0.7030184606974893        0.010597687861271674        -0.5        
O1_COOH        O        0.5476132128759269        0.7104898415249047        0.010597687861271674        -0.5        
O1_COOH        O        0.7761083051034154        0.6976541372423324        0.010597687861271674        -0.5        
O1_COOH        O        0.917477142116091        0.7064302686725313        0.010597687861271674        -0.5        
O1_COOH        O        -0.028611465093695016        0.873701233699231        0.010597687861271674        -0.5        
O1_COOH        O        0.1773625656260807        0.8980384133225622        0.010597687861271674        -0.5        
O1_COOH        O        0.38132113503360515        0.8992098756334089        0.010597687861271674        -0.5        
O1_COOH        O        0.5898262465837116        0.8796901627213952        0.010597687861271674        -0.5        
O1_COOH        O        0.7425047794417693        0.8989119383007589        0.010597687861271674        -0.5        
O1_COOH        O        0.9124069596034654        0.8848696576486005        0.010597687861271674        -0.5        
O1_COOH        O        -0.004635085357688192        0.047694454282930086        0.31724849710982655        -0.5        
O1_COOH        O        0.025730952900068844        0.21697216686184956        0.31724849710982655        -0.5        
O1_COOH        O        0.02644163357452678        0.36355642836529173        0.31724849710982655        -0.5        
O1_COOH        O        -0.017417966391712256        0.5605764693353092        0.31724849710982655        -0.5        
O1_COOH        O        0.1587335812334315        0.01983309374285382        0.31724849710982655        -0.5        
O1_COOH        O        0.17100692899948647        0.22793442187863727        0.31724849710982655        -0.5        
O1_COOH        O        0.2020947581168751        0.37733450477397923        0.31724849710982655        -0.5        
O1_COOH        O        0.2162938816947253        0.5372836557764287        0.31724849710982655        -0.5        
O1_COOH        O        0.37256822910499643        0.04797434140524845        0.31724849710982655        -0.5        
O1_COOH        O        0.34753488415780914        0.21258254728238885        0.31724849710982655        -0.5        
O1_COOH        O        0.3741962321391064        0.38140142646660596        0.31724849710982655        -0.5        
O1_COOH        O        0.4032481726825531        0.542770019830332        0.31724849710982655        -0.5        
O1_COOH        O        0.5373442246611734        0.032903636011580785        0.31724849710982655        -0.5        
O1_COOH        O        0.5374754062546808        0.21832679596588855        0.31724849710982655        -0.5        
O1_COOH        O        0.5912142813367285        0.35406227571124166        0.31724849710982655        -0.5        
O1_COOH        O        0.5463092301764827        0.5614823447233563        0.31724849710982655        -0.5        
O1_COOH        O        0.7212072624628437        0.018879942736504885        0.31724849710982655        -0.5        
O1_COOH        O        0.7569287067203245        0.23239540600589786        0.31724849710982655        -0.5        
O1_COOH        O        0.7514122239873882        0.3813773717002624        0.31724849710982655        -0.5        
O1_COOH        O        0.7220248217479824        0.5440401218161499        0.31724849710982655        -0.5        
O1_COOH        O        0.9428678651007493        0.04756176108917491        0.31724849710982655        -0.5        
O1_COOH        O        0.9658924702752444        0.2086278093704226        0.31724849710982655        -0.5        
O1_COOH        O        0.9135695471038144        0.3682930176535924        0.31724849710982655        -0.5        
O1_COOH        O        0.9524081621811878        0.5623275751182897        0.31724849710982655        -0.5        
O1_COOH        O        0.012793719605111704        0.7116689247048458        0.31724849710982655        -0.5        
O1_COOH        O        0.18966341948829069        0.7146633938503427        0.31724849710982655        -0.5        
O1_COOH        O        0.3804026037674051        0.7142219716080366        0.31724849710982655        -0.5        
O1_COOH        O        0.5458823475325071        0.7093275496925001        0.31724849710982655        -0.5        
O1_COOH        O        0.7513314462253451        0.7147153269620158        0.31724849710982655        -0.5        
O1_COOH        O        0.9501912601946424        0.711720831088027        0.31724849710982655        -0.5        
O1_COOH        O        0.007498491632513338        0.8989110327788347        0.31724849710982655        -0.5        
O1_COOH        O        0.1589188832733748        0.8739653304934311        0.31724849710982655        -0.5        
O1_COOH        O        0.3510166451222165        0.8867295740633273        0.31724849710982655        -0.5        
O1_COOH        O        0.5707376574586649        0.8986954620230065        0.31724849710982655        -0.5        
O1_COOH        O        0.7787705979593684        0.8715838449450642        0.31724849710982655        -0.5        
O1_COOH        O        0.9476753492230684        0.8980237414465142        0.31724849710982655        -0.5        
O2_COOH        O        -0.027734065755379057        0.014305911990494361        0.0        -0.58        
O2_COOH        O        -0.009484786320818232        0.1766181710299675        0.0        -0.58        
O2_COOH        O        -0.004899304683755513        0.32351294337187675        0.0        -0.58        
O2_COOH        O        -0.02412634557325137        0.5223763207883594        0.0        -0.58        
O2_COOH        O        0.18312663730207548        -0.009910596504119762        0.0        -0.58        
O2_COOH        O        0.2036412001593482        0.18016974767087346        0.0        -0.58        
O2_COOH        O        0.1713396300979924        0.328332617206709        0.0        -0.58        
O2_COOH        O        0.19473552492701893        0.5092300943914829        0.0        -0.58        
O2_COOH        O        0.3486247457092196        0.008759972982949353        0.0        -0.58        
O2_COOH        O        0.38156678817579953        0.17572172476851028        0.0        -0.58        
O2_COOH        O        0.3474818591596243        0.34634530651568096        0.0        -0.58        
O2_COOH        O        0.361223082412389        0.5119698385031163        0.0        -0.58        
O2_COOH        O        0.5799518168491169        -0.004006820957655941        0.0        -0.58        
O2_COOH        O        0.5644389875845292        0.17498998741612357        0.0        -0.58        
O2_COOH        O        0.5498168690046498        0.32618364112757037        0.0        -0.58        
O2_COOH        O        0.5409445460030192        0.5186329104309578        0.0        -0.58        
O2_COOH        O        0.7739090526151348        0.0034878313910806313        0.0        -0.58        
O2_COOH        O        0.7224104132899074        0.19858692974859532        0.0        -0.58        
O2_COOH        O        0.7274768774774127        0.33471264873160594        0.0        -0.58        
O2_COOH        O        0.7777778118680853        0.5331394686327091        0.0        -0.58        
O2_COOH        O        0.9245395177789051        -0.0070029296715593955        0.0        -0.58        
O2_COOH        O        0.918769040504312        0.18228725133421358        0.0        -0.58        
O2_COOH        O        0.9096847341221873        0.34824696126955607        0.0        -0.58        
O2_COOH        O        0.9460450219575952        0.509624497915166        0.0        -0.58        
O2_COOH        O        0.022740779805163692        0.6683522789803945        0.0        -0.58        
O2_COOH        O        0.16795609710226325        0.6645500753927981        0.0        -0.58        
O2_COOH        O        0.35263965408742387        0.6678234757230717        0.0        -0.58        
O2_COOH        O        0.5769944776400697        0.6605489871822704        0.0        -0.58        
O2_COOH        O        0.7245797235234439        0.673046433889051        0.0        -0.58        
O2_COOH        O        0.9569951982230809        0.6645015786613149        0.0        -0.58        
O2_COOH        O        0.02785747103077626        0.8671265538510811        0.0        -0.58        
O2_COOH        O        0.19737028393942974        0.8434307286248102        0.0        -0.58        
O2_COOH        O        0.3688454449814566        0.8422901377015144        0.0        -0.58        
O2_COOH        O        0.5358938782899536        0.8612954502639711        0.0        -0.58        
O2_COOH        O        0.7572977000264206        0.842580223532006        0.0        -0.58        
O2_COOH        O        0.961931766902933        0.8562524498647895        0.0        -0.58        
O2_COOH        O        0.004512937581285485        -0.009887597489324834        0.3278461849710983        -0.58        
O2_COOH        O        -0.02505286858469524        0.19078351369456198        0.3278461849710983        -0.58        
O2_COOH        O        -0.02574482078763249        0.34045601684953347        0.3278461849710983        -0.58        
O2_COOH        O        0.016958953083429644        0.514117863110616        0.3278461849710983        -0.58        
O2_COOH        O        0.21550834123050386        0.01723953639149917        0.3278461849710983        -0.58        
O2_COOH        O        0.20355843133515697        0.18011014549890667        0.3278461849710983        -0.58        
O2_COOH        O        0.17328985556626986        0.3270410322215909        0.3278461849710983        -0.58        
O2_COOH        O        0.15946491956816397        0.5367968443098269        0.3278461849710983        -0.58        
O2_COOH        O        0.3773676867660991        -0.0101601087842319        0.3278461849710983        -0.58        
O2_COOH        O        0.401741331365773        0.19505745422401433        0.3278461849710983        -0.58        
O2_COOH        O        0.3757825862753616        0.32308128556528454        0.3278461849710983        -0.58        
O2_COOH        O        0.34749624758467895        0.5314550616644642        0.3278461849710983        -0.58        
O2_COOH        O        0.5869928485997911        0.004513440352193724        0.3278461849710983        -0.58        
O2_COOH        O        0.586865124017043        0.18946458294775698        0.3278461849710983        -0.58        
O2_COOH        O        0.534542422228712        0.34969997138509656        0.3278461849710983        -0.58        
O2_COOH        O        0.578264096660118        0.513235860133929        0.3278461849710983        -0.58        
O2_COOH        O        0.7780339664260963        0.018167569138524485        0.3278461849710983        -0.58        
O2_COOH        O        0.7432538845490746        0.1757667210819131        0.3278461849710983        -0.58        
O2_COOH        O        0.7486249921600029        0.3231047064196299        0.3278461849710983        -0.58        
O2_COOH        O        0.7772379521700241        0.5302184305041867        0.3278461849710983        -0.58        
O2_COOH        O        0.9322735935209345        -0.009758401141325495        0.3278461849710983        -0.58        
O2_COOH        O        0.9098557526468961        0.19890797346363165        0.3278461849710983        -0.58        
O2_COOH        O        0.9607998169134564        0.3358442502569657        0.3278461849710983        -0.58        
O2_COOH        O        0.9229847105967995        0.5124129039810694        0.3278461849710983        -0.58        
O2_COOH        O        -0.012456568445836494        0.6594009762216111        0.3278461849710983        -0.58        
O2_COOH        O        0.18539359281235285        0.6564854199157713        0.3278461849710983        -0.58        
O2_COOH        O        0.36973977031765437        0.6569152094175363        0.3278461849710983        -0.58        
O2_COOH        O        0.5786797297236171        0.6616806492954997        0.3278461849710983        -0.58        
O2_COOH        O        0.7487036411966278        0.6564348553903535        0.3278461849710983        -0.58        
O2_COOH        O        0.9251431908656712        0.6593504377203128        0.3278461849710983        -0.58        
O2_COOH        O        -0.007300884898525887        0.8425811051908337        0.3278461849710983        -0.58        
O2_COOH        O        0.2153279224301118        0.8668694167639149        0.3278461849710983        -0.58        
O2_COOH        O        0.39835132477630136        0.8544415475753316        0.3278461849710983        -0.58        
O2_COOH        O        0.5544794284121863        0.8427909950397423        0.3278461849710983        -0.58        
O2_COOH        O        0.7219875897103978        0.8691881433463037        0.3278461849710983        -0.58        
O2_COOH        O        0.9275928003763034        0.8434450138548967        0.3278461849710983        -0.58        
H_COOH        H        -0.047203883078986285        0.011348247772169457        0.016871676300578037        0.45        
H_COOH        H        -0.016143278395099235        0.15760412970840612        0.016871676300578037        0.45        
H_COOH        H        -0.008338705457041426        0.30361841147959884        0.016871676300578037        0.45        
H_COOH        H        -0.0410634778761961        0.5120842580014496        0.016871676300578037        0.45        
H_COOH        H        0.1800564573447083        -0.029868689031960497        0.016871676300578037        0.45        
H_COOH        H        0.21497261551179564        0.16364897758545666        0.016871676300578037        0.45        
H_COOH        H        0.15999475723841242        0.3118215837870758        0.016871676300578037        0.45        
H_COOH        H        0.19981499469578667        0.4897091421694809        0.016871676300578037        0.45        
H_COOH        H        0.3301088386859017        0.0019089589645207158        0.016871676300578037        0.45        
H_COOH        H        0.3861767926127019        0.1560783619076929        0.016871676300578037        0.45        
H_COOH        H        0.328163625043752        0.34247950778489106        0.016871676300578037        0.45        
H_COOH        H        0.3515514363191307        0.49437223635309513        0.016871676300578037        0.45        
H_COOH        H        0.5922033088955527        -0.019820355943047777        0.016871676300578037        0.45        
H_COOH        H        0.5658001920468141        0.1548329316584374        0.016871676300578037        0.45        
H_COOH        H        0.5409130809431045        0.308163987512735        0.016871676300578037        0.45        
H_COOH        H        0.5258122262288355        0.5057129056585936        0.016871676300578037        0.45        
H_COOH        H        0.7906936413192595        -0.007064321674296693        0.016871676300578037        0.45        
H_COOH        H        0.7030420228772922        0.19499535561416567        0.016871676300578037        0.45        
H_COOH        H        0.7116652368423952        0.32268051319172225        0.016871676300578037        0.45        
H_COOH        H        0.7972783397564729        0.5304033309021831        0.016871676300578037        0.45        
H_COOH        H        0.9154410241250621        -0.024919787330802395        0.016871676300578037        0.45        
H_COOH        H        0.905619567113228        0.16725300723712236        0.016871676300578037        0.45        
H_COOH        H        0.8901579128394643        0.3457161586766236        0.016871676300578037        0.45        
H_COOH        H        0.9520437823992849        0.49038042412222743        0.016871676300578037        0.45        
H_COOH        H        0.03870521980138169        0.6565347014200356        0.016871676300578037        0.45        
H_COOH        H        0.15423592269417272        0.6500632819327362        0.016871676300578037        0.45        
H_COOH        H        0.3369422855857974        0.6556346686822964        0.016871676300578037        0.45        
H_COOH        H        0.5871698639084366        0.6432533572089576        0.016871676300578037        0.45        
H_COOH        H        0.706734228251329        0.6645242382379433        0.016871676300578037        0.45        
H_COOH        H        0.970681181065942        0.6499807396159032        0.016871676300578037        0.45        
H_COOH        H        0.04741392109658382        0.864849595810547        0.016871676300578037        0.45        
H_COOH        H        0.20429940233583938        0.8245188713755969        0.016871676300578037        0.45        
H_COOH        H        0.364524835699859        0.8225775649310572        0.016871676300578037        0.45        
H_COOH        H        0.5172158981498151        0.8549249517149007        0.016871676300578037        0.45        
H_COOH        H        0.7624208178429757        0.8230712962774155        0.016871676300578037        0.45        
H_COOH        H        0.9790833105203992        0.8463416735432148        0.016871676300578037        0.45        
H_COOH        H        0.007681101638999542        -0.029829544291521525        0.3109745086705202        0.45        
H_COOH        H        -0.04264043685105193        0.18171379991727576        0.3109745086705202        0.45        
H_COOH        H        -0.043818152054145146        0.33245582992708567        0.3109745086705202        0.45        
H_COOH        H        0.028864445824606993        0.49802821320544455        0.3109745086705202        0.45        
H_COOH        H        0.2351707049136722        0.016341329725753344        0.3109745086705202        0.45        
H_COOH        H        0.21483174147139456        0.16354753360744104        0.3109745086705202        0.45        
H_COOH        H        0.1633140763672485        0.30962328270991546        0.3109745086705202        0.45        
H_COOH        H        0.1397837844805464        0.5366282506583178        0.3109745086705202        0.45        
H_COOH        H        0.3790298458314908        -0.03029336345947028        0.3109745086705202        0.45        
H_COOH        H        0.4205142311372631        0.18898812423806818        0.3109745086705202        0.45        
H_COOH        H        0.3763319760386817        0.3028837220614576        0.3109745086705202        0.45        
H_COOH        H        0.328188114404236        0.5275364396829956        0.3109745086705202        0.45        
H_COOH        H        0.604187272676622        -0.005318716615443995        0.3109745086705202        0.45        
H_COOH        H        0.6039698831195505        0.17946895585760564        0.3109745086705202        0.45        
H_COOH        H        0.5149156954148857        0.348189208254407        0.3109745086705202        0.45        
H_COOH        H        0.5893307785145322        0.4965270281374464        0.3109745086705202        0.45        
H_COOH        H        0.7977143194614739        0.01792085829795906        0.3109745086705202        0.45        
H_COOH        H        0.7385179891116015        0.15615494644944697        0.3109745086705202        0.45        
H_COOH        H        0.7476597117103423        0.30292358478046466        0.3109745086705202        0.45        
H_COOH        H        0.7963594887560066        0.5254316710127098        0.3109745086705202        0.45        
H_COOH        H        0.9286045613529199        -0.029609649763291022        0.3109745086705202        0.45        
H_COOH        H        0.8904489894712103        0.19554177784167048        0.3109745086705202        0.45        
H_COOH        H        0.9771567111019873        0.32460651951788533        0.3109745086705202        0.45        
H_COOH        H        0.912794714093139        0.49512634183485554        0.3109745086705202        0.45        
H_COOH        H        -0.021201305487227838        0.6412994217262075        0.3109745086705202        0.45        
H_COOH        H        0.18391485675128078        0.6363370919983937        0.3109745086705202        0.45        
H_COOH        H        0.36604699364730187        0.6370686015278234        0.3109745086705202        0.45        
H_COOH        H        0.5900381935292013        0.6451794666567738        0.3109745086705202        0.45        
H_COOH        H        0.7477935737975624        0.6362510302587693        0.3109745086705202        0.45        
H_COOH        H        0.9164684866708348        0.6412134042801065        0.3109745086705202        0.45        
H_COOH        H        -0.0124262385530802        0.8230727968767357        0.3109745086705202        0.45        
H_COOH        H        0.2348636288421695        0.8644119438230987        0.3109745086705202        0.45        
H_COOH        H        0.41474437841902695        0.8432594849923903        0.3109745086705202        0.45        
H_COOH        H        0.548848841644887        0.8234300332074898        0.3109745086705202        0.45        
H_COOH        H        0.7023223694739198        0.868358458533658        0.3109745086705202        0.45        
H_COOH        H        0.9206377664997983        0.8245431850963728        0.3109745086705202        0.45        
