data_graphite_ortho

_audit_creation_method RASPA-1.0
_audit_creation_date 2012-2-3
_audit_author_name 'David Dubbeldam'

_cell_length_a    59.04    
_cell_length_b    59.64    
_cell_length_c    13.7    
_cell_angle_alpha 90
_cell_angle_beta  90
_cell_angle_gamma 90
_cell_volume      48239.69      

_symmetry_cell_setting          triclinic
_symmetry_space_group_name_Hall 'P 1'
_symmetry_space_group_name_H-M  'P 1'
_symmetry_Int_Tables_number     1

_symmetry_equiv_pos_as_xyz 'x,y,z'

loop_
_atom_site_label
_atom_site_type_symbol
_atom_site_fract_x
_atom_site_fract_y
_atom_site_fract_z
_atom_site_charge
C1        C        0.0        0.011905        0.0        0        
C2        C        0.020833        0.047619        0.0        0        
C3        C        0.0        0.059523        0.0        0        
C4        C        0.020833        0.023809        0.0        0        
C1        C        0.0        0.083334        0.0        0        
C2        C        0.020833        0.119048        0.0        0        
C3        C        0.0        0.130952        0.0        0        
C4        C        0.020833        0.095238        0.0        0        
C1        C        0.0        0.154762        0.0        0        
C2        C        0.020833        0.190476        0.0        0        
C3        C        0.0        0.202381        0.0        0        
C4        C        0.020833        0.166666        0.0        0        
C1        C        0.0        0.226191        0.0        0        
C2        C        0.020833        0.261905        0.0        0        
C3        C        0.0        0.273809        0.0        0        
C4        C        0.020833        0.238095        0.0        0        
C1        C        0.0        0.297619        0.0        0        
C2        C        0.020833        0.333333        0.0        0        
C3        C        0.0        0.345238        0.0        0        
C4        C        0.020833        0.309524        0.0        0        
C1        C        0.0        0.369048        0.0        0        
C2        C        0.020833        0.404762        0.0        0        
C3        C        0.0        0.416667        0.0        0        
C4        C        0.020833        0.380952        0.0        0        
C1        C        0.041667        0.011905        0.0        0        
C2        C        0.0625        0.047619        0.0        0        
C3        C        0.041667        0.059523        0.0        0        
C4        C        0.0625        0.023809        0.0        0        
C1        C        0.041667        0.083334        0.0        0        
C2        C        0.0625        0.119048        0.0        0        
C3        C        0.041667        0.130952        0.0        0        
C4        C        0.0625        0.095238        0.0        0        
C1        C        0.041667        0.154762        0.0        0        
C2        C        0.0625        0.190476        0.0        0        
C3        C        0.041667        0.202381        0.0        0        
C4        C        0.0625        0.166666        0.0        0        
C1        C        0.041667        0.226191        0.0        0        
C2        C        0.0625        0.261905        0.0        0        
C3        C        0.041667        0.273809        0.0        0        
C4        C        0.0625        0.238095        0.0        0        
C1        C        0.041667        0.297619        0.0        0        
C2        C        0.0625        0.333333        0.0        0        
C3        C        0.041667        0.345238        0.0        0        
C4        C        0.0625        0.309524        0.0        0        
C1        C        0.041667        0.369048        0.0        0        
C2        C        0.0625        0.404762        0.0        0        
C3        C        0.041667        0.416667        0.0        0        
C4        C        0.0625        0.380952        0.0        0        
C1        C        0.083333        0.011905        0.0        0        
C2        C        0.104167        0.047619        0.0        0        
C3        C        0.083333        0.059523        0.0        0        
C4        C        0.104167        0.023809        0.0        0        
C1        C        0.083333        0.083334        0.0        0        
C2        C        0.104167        0.119048        0.0        0        
C3        C        0.083333        0.130952        0.0        0        
C4        C        0.104167        0.095238        0.0        0        
C1        C        0.083333        0.154762        0.0        0        
C2        C        0.104167        0.190476        0.0        0        
C3        C        0.083333        0.202381        0.0        0        
C4        C        0.104167        0.166666        0.0        0        
C1        C        0.083333        0.226191        0.0        0        
C2        C        0.104167        0.261905        0.0        0        
C3        C        0.083333        0.273809        0.0        0        
C4        C        0.104167        0.238095        0.0        0        
C1        C        0.083333        0.297619        0.0        0        
C2        C        0.104167        0.333333        0.0        0        
C3        C        0.083333        0.345238        0.0        0        
C4        C        0.104167        0.309524        0.0        0        
C1        C        0.083333        0.369048        0.0        0        
C2        C        0.104167        0.404762        0.0        0        
C3        C        0.083333        0.416667        0.0        0        
C4        C        0.104167        0.380952        0.0        0        
C1        C        0.125        0.011905        0.0        0        
C2        C        0.145833        0.047619        0.0        0        
C3        C        0.125        0.059523        0.0        0        
C4        C        0.145833        0.023809        0.0        0        
C1        C        0.125        0.083334        0.0        0        
C2        C        0.145833        0.119048        0.0        0        
C3        C        0.125        0.130952        0.0        0        
C4        C        0.145833        0.095238        0.0        0        
C1        C        0.125        0.154762        0.0        0        
C2        C        0.145833        0.190476        0.0        0        
C3        C        0.125        0.202381        0.0        0        
C4        C        0.145833        0.166666        0.0        0        
C1        C        0.125        0.226191        0.0        0        
C2        C        0.145833        0.261905        0.0        0        
C3        C        0.125        0.273809        0.0        0        
C4        C        0.145833        0.238095        0.0        0        
C1        C        0.125        0.297619        0.0        0        
C2        C        0.145833        0.333333        0.0        0        
C3        C        0.125        0.345238        0.0        0        
C4        C        0.145833        0.309524        0.0        0        
C1        C        0.125        0.369048        0.0        0        
C2        C        0.145833        0.404762        0.0        0        
C3        C        0.125        0.416667        0.0        0        
C4        C        0.145833        0.380952        0.0        0        
C1        C        0.166667        0.011905        0.0        0        
C2        C        0.1875        0.047619        0.0        0        
C3        C        0.166667        0.059523        0.0        0        
C4        C        0.1875        0.023809        0.0        0        
C1        C        0.166667        0.083334        0.0        0        
C2        C        0.1875        0.119048        0.0        0        
C3        C        0.166667        0.130952        0.0        0        
C4        C        0.1875        0.095238        0.0        0        
C1        C        0.166667        0.154762        0.0        0        
C2        C        0.1875        0.190476        0.0        0        
C3        C        0.166667        0.202381        0.0        0        
C4        C        0.1875        0.166666        0.0        0        
C1        C        0.166667        0.226191        0.0        0        
C2        C        0.1875        0.261905        0.0        0        
C3        C        0.166667        0.273809        0.0        0        
C4        C        0.1875        0.238095        0.0        0        
C1        C        0.166667        0.297619        0.0        0        
C2        C        0.1875        0.333333        0.0        0        
C3        C        0.166667        0.345238        0.0        0        
C4        C        0.1875        0.309524        0.0        0        
C1        C        0.166667        0.369048        0.0        0        
C2        C        0.1875        0.404762        0.0        0        
C3        C        0.166667        0.416667        0.0        0        
C4        C        0.1875        0.380952        0.0        0        
C1        C        0.208333        0.011905        0.0        0        
C2        C        0.229167        0.047619        0.0        0        
C3        C        0.208333        0.059523        0.0        0        
C4        C        0.229167        0.023809        0.0        0        
C1        C        0.208333        0.083334        0.0        0        
C2        C        0.229167        0.119048        0.0        0        
C3        C        0.208333        0.130952        0.0        0        
C4        C        0.229167        0.095238        0.0        0        
C1        C        0.208333        0.154762        0.0        0        
C2        C        0.229167        0.190476        0.0        0        
C3        C        0.208333        0.202381        0.0        0        
C4        C        0.229167        0.166666        0.0        0        
C1        C        0.208333        0.226191        0.0        0        
C2        C        0.229167        0.261905        0.0        0        
C3        C        0.208333        0.273809        0.0        0        
C4        C        0.229167        0.238095        0.0        0        
C1        C        0.208333        0.297619        0.0        0        
C2        C        0.229167        0.333333        0.0        0        
C3        C        0.208333        0.345238        0.0        0        
C4        C        0.229167        0.309524        0.0        0        
C1        C        0.208333        0.369048        0.0        0        
C2        C        0.229167        0.404762        0.0        0        
C3        C        0.208333        0.416667        0.0        0        
C4        C        0.229167        0.380952        0.0        0        
C1        C        0.25        0.011905        0.0        0        
C2        C        0.270833        0.047619        0.0        0        
C3        C        0.25        0.059523        0.0        0        
C4        C        0.270833        0.023809        0.0        0        
C1        C        0.25        0.083334        0.0        0        
C2        C        0.270833        0.119048        0.0        0        
C3        C        0.25        0.130952        0.0        0        
C4        C        0.270833        0.095238        0.0        0        
C1        C        0.25        0.154762        0.0        0        
C2        C        0.270833        0.190476        0.0        0        
C3        C        0.25        0.202381        0.0        0        
C4        C        0.270833        0.166666        0.0        0        
C1        C        0.25        0.226191        0.0        0        
C2        C        0.270833        0.261905        0.0        0        
C3        C        0.25        0.273809        0.0        0        
C4        C        0.270833        0.238095        0.0        0        
C1        C        0.25        0.297619        0.0        0        
C2        C        0.270833        0.333333        0.0        0        
C3        C        0.25        0.345238        0.0        0        
C4        C        0.270833        0.309524        0.0        0        
C1        C        0.25        0.369048        0.0        0        
C2        C        0.270833        0.404762        0.0        0        
C3        C        0.25        0.416667        0.0        0        
C4        C        0.270833        0.380952        0.0        0        
C1        C        0.291667        0.011905        0.0        0        
C2        C        0.3125        0.047619        0.0        0        
C3        C        0.291667        0.059523        0.0        0        
C4        C        0.3125        0.023809        0.0        0        
C1        C        0.291667        0.083334        0.0        0        
C2        C        0.3125        0.119048        0.0        0        
C3        C        0.291667        0.130952        0.0        0        
C4        C        0.3125        0.095238        0.0        0        
C1        C        0.291667        0.154762        0.0        0        
C2        C        0.3125        0.190476        0.0        0        
C3        C        0.291667        0.202381        0.0        0        
C4        C        0.3125        0.166666        0.0        0        
C1        C        0.291667        0.226191        0.0        0        
C2        C        0.3125        0.261905        0.0        0        
C3        C        0.291667        0.273809        0.0        0        
C4        C        0.3125        0.238095        0.0        0        
C1        C        0.291667        0.297619        0.0        0        
C2        C        0.3125        0.333333        0.0        0        
C3        C        0.291667        0.345238        0.0        0        
C4        C        0.3125        0.309524        0.0        0        
C1        C        0.291667        0.369048        0.0        0        
C2        C        0.3125        0.404762        0.0        0        
C3        C        0.291667        0.416667        0.0        0        
C4        C        0.3125        0.380952        0.0        0        
C1        C        0.333333        0.011905        0.0        0        
C2        C        0.354167        0.047619        0.0        0        
C3        C        0.333333        0.059523        0.0        0        
C4        C        0.354167        0.023809        0.0        0        
C1        C        0.333333        0.083334        0.0        0        
C2        C        0.354167        0.119048        0.0        0        
C3        C        0.333333        0.130952        0.0        0        
C4        C        0.354167        0.095238        0.0        0        
C1        C        0.333333        0.154762        0.0        0        
C2        C        0.354167        0.190476        0.0        0        
C3        C        0.333333        0.202381        0.0        0        
C4        C        0.354167        0.166666        0.0        0        
C1        C        0.333333        0.226191        0.0        0        
C2        C        0.354167        0.261905        0.0        0        
C3        C        0.333333        0.273809        0.0        0        
C4        C        0.354167        0.238095        0.0        0        
C1        C        0.333333        0.297619        0.0        0        
C2        C        0.354167        0.333333        0.0        0        
C3        C        0.333333        0.345238        0.0        0        
C4        C        0.354167        0.309524        0.0        0        
C1        C        0.333333        0.369048        0.0        0        
C2        C        0.354167        0.404762        0.0        0        
C3        C        0.333333        0.416667        0.0        0        
C4        C        0.354167        0.380952        0.0        0        
C1        C        0.375        0.011905        0.0        0        
C2        C        0.395833        0.047619        0.0        0        
C3        C        0.375        0.059523        0.0        0        
C4        C        0.395833        0.023809        0.0        0        
C1        C        0.375        0.083334        0.0        0        
C2        C        0.395833        0.119048        0.0        0        
C3        C        0.375        0.130952        0.0        0        
C4        C        0.395833        0.095238        0.0        0        
C1        C        0.375        0.154762        0.0        0        
C2        C        0.395833        0.190476        0.0        0        
C3        C        0.375        0.202381        0.0        0        
C4        C        0.395833        0.166666        0.0        0        
C1        C        0.375        0.226191        0.0        0        
C2        C        0.395833        0.261905        0.0        0        
C3        C        0.375        0.273809        0.0        0        
C4        C        0.395833        0.238095        0.0        0        
C1        C        0.375        0.297619        0.0        0        
C2        C        0.395833        0.333333        0.0        0        
C3        C        0.375        0.345238        0.0        0        
C4        C        0.395833        0.309524        0.0        0        
C1        C        0.375        0.369048        0.0        0        
C2        C        0.395833        0.404762        0.0        0        
C3        C        0.375        0.416667        0.0        0        
C4        C        0.395833        0.380952        0.0        0        
C1        C        0.416667        0.011905        0.0        0        
C2        C        0.4375        0.047619        0.0        0        
C3        C        0.416667        0.059523        0.0        0        
C4        C        0.4375        0.023809        0.0        0        
C1        C        0.416667        0.083334        0.0        0        
C2        C        0.4375        0.119048        0.0        0        
C3        C        0.416667        0.130952        0.0        0        
C4        C        0.4375        0.095238        0.0        0        
C1        C        0.416667        0.154762        0.0        0        
C2        C        0.4375        0.190476        0.0        0        
C3        C        0.416667        0.202381        0.0        0        
C4        C        0.4375        0.166666        0.0        0        
C1        C        0.416667        0.226191        0.0        0        
C2        C        0.4375        0.261905        0.0        0        
C3        C        0.416667        0.273809        0.0        0        
C4        C        0.4375        0.238095        0.0        0        
C1        C        0.416667        0.297619        0.0        0        
C2        C        0.4375        0.333333        0.0        0        
C3        C        0.416667        0.345238        0.0        0        
C4        C        0.4375        0.309524        0.0        0        
C1        C        0.416667        0.369048        0.0        0        
C2        C        0.4375        0.404762        0.0        0        
C3        C        0.416667        0.416667        0.0        0        
C4        C        0.4375        0.380952        0.0        0        
C1        C        0.458333        0.011905        0.0        0        
C2        C        0.479167        0.047619        0.0        0        
C3        C        0.458333        0.059523        0.0        0        
C4        C        0.479167        0.023809        0.0        0        
C1        C        0.458333        0.083334        0.0        0        
C2        C        0.479167        0.119048        0.0        0        
C3        C        0.458333        0.130952        0.0        0        
C4        C        0.479167        0.095238        0.0        0        
C1        C        0.458333        0.154762        0.0        0        
C2        C        0.479167        0.190476        0.0        0        
C3        C        0.458333        0.202381        0.0        0        
C4        C        0.479167        0.166666        0.0        0        
C1        C        0.458333        0.226191        0.0        0        
C2        C        0.479167        0.261905        0.0        0        
C3        C        0.458333        0.273809        0.0        0        
C4        C        0.479167        0.238095        0.0        0        
C1        C        0.458333        0.297619        0.0        0        
C2        C        0.479167        0.333333        0.0        0        
C3        C        0.458333        0.345238        0.0        0        
C4        C        0.479167        0.309524        0.0        0        
C1        C        0.458333        0.369048        0.0        0        
C2        C        0.479167        0.404762        0.0        0        
C3        C        0.458333        0.416667        0.0        0        
C4        C        0.479167        0.380952        0.0        0        
C1        C        0.5        0.011905        0.0        0        
C2        C        0.520833        0.047619        0.0        0        
C3        C        0.5        0.059523        0.0        0        
C4        C        0.520833        0.023809        0.0        0        
C1        C        0.5        0.083334        0.0        0        
C2        C        0.520833        0.119048        0.0        0        
C3        C        0.5        0.130952        0.0        0        
C4        C        0.520833        0.095238        0.0        0        
C1        C        0.5        0.154762        0.0        0        
C2        C        0.520833        0.190476        0.0        0        
C3        C        0.5        0.202381        0.0        0        
C4        C        0.520833        0.166666        0.0        0        
C1        C        0.5        0.226191        0.0        0        
C2        C        0.520833        0.261905        0.0        0        
C3        C        0.5        0.273809        0.0        0        
C4        C        0.520833        0.238095        0.0        0        
C1        C        0.5        0.297619        0.0        0        
C2        C        0.520833        0.333333        0.0        0        
C3        C        0.5        0.345238        0.0        0        
C4        C        0.520833        0.309524        0.0        0        
C1        C        0.5        0.369048        0.0        0        
C2        C        0.520833        0.404762        0.0        0        
C3        C        0.5        0.416667        0.0        0        
C4        C        0.520833        0.380952        0.0        0        
C1        C        0.541667        0.011905        0.0        0        
C2        C        0.5625        0.047619        0.0        0        
C3        C        0.541667        0.059523        0.0        0        
C4        C        0.5625        0.023809        0.0        0        
C1        C        0.541667        0.083334        0.0        0        
C2        C        0.5625        0.119048        0.0        0        
C3        C        0.541667        0.130952        0.0        0        
C4        C        0.5625        0.095238        0.0        0        
C1        C        0.541667        0.154762        0.0        0        
C2        C        0.5625        0.190476        0.0        0        
C3        C        0.541667        0.202381        0.0        0        
C4        C        0.5625        0.166666        0.0        0        
C1        C        0.541667        0.226191        0.0        0        
C2        C        0.5625        0.261905        0.0        0        
C3        C        0.541667        0.273809        0.0        0        
C4        C        0.5625        0.238095        0.0        0        
C1        C        0.541667        0.297619        0.0        0        
C2        C        0.5625        0.333333        0.0        0        
C3        C        0.541667        0.345238        0.0        0        
C4        C        0.5625        0.309524        0.0        0        
C1        C        0.541667        0.369048        0.0        0        
C2        C        0.5625        0.404762        0.0        0        
C3        C        0.541667        0.416667        0.0        0        
C4        C        0.5625        0.380952        0.0        0        
C1        C        0.583333        0.011905        0.0        0        
C2        C        0.604167        0.047619        0.0        0        
C3        C        0.583333        0.059523        0.0        0        
C4        C        0.604167        0.023809        0.0        0        
C1        C        0.583333        0.083334        0.0        0        
C2        C        0.604167        0.119048        0.0        0        
C3        C        0.583333        0.130952        0.0        0        
C4        C        0.604167        0.095238        0.0        0        
C1        C        0.583333        0.154762        0.0        0        
C2        C        0.604167        0.190476        0.0        0        
C3        C        0.583333        0.202381        0.0        0        
C4        C        0.604167        0.166666        0.0        0        
C1        C        0.583333        0.226191        0.0        0        
C2        C        0.604167        0.261905        0.0        0        
C3        C        0.583333        0.273809        0.0        0        
C4        C        0.604167        0.238095        0.0        0        
C1        C        0.583333        0.297619        0.0        0        
C2        C        0.604167        0.333333        0.0        0        
C3        C        0.583333        0.345238        0.0        0        
C4        C        0.604167        0.309524        0.0        0        
C1        C        0.583333        0.369048        0.0        0        
C2        C        0.604167        0.404762        0.0        0        
C3        C        0.583333        0.416667        0.0        0        
C4        C        0.604167        0.380952        0.0        0        
C1        C        0.625        0.011905        0.0        0        
C2        C        0.645833        0.047619        0.0        0        
C3        C        0.625        0.059523        0.0        0        
C4        C        0.645833        0.023809        0.0        0        
C1        C        0.625        0.083334        0.0        0        
C2        C        0.645833        0.119048        0.0        0        
C3        C        0.625        0.130952        0.0        0        
C4        C        0.645833        0.095238        0.0        0        
C1        C        0.625        0.154762        0.0        0        
C2        C        0.645833        0.190476        0.0        0        
C3        C        0.625        0.202381        0.0        0        
C4        C        0.645833        0.166666        0.0        0        
C1        C        0.625        0.226191        0.0        0        
C2        C        0.645833        0.261905        0.0        0        
C3        C        0.625        0.273809        0.0        0        
C4        C        0.645833        0.238095        0.0        0        
C1        C        0.625        0.297619        0.0        0        
C2        C        0.645833        0.333333        0.0        0        
C3        C        0.625        0.345238        0.0        0        
C4        C        0.645833        0.309524        0.0        0        
C1        C        0.625        0.369048        0.0        0        
C2        C        0.645833        0.404762        0.0        0        
C3        C        0.625        0.416667        0.0        0        
C4        C        0.645833        0.380952        0.0        0        
C1        C        0.666667        0.011905        0.0        0        
C3        C        0.666667        0.059523        0.0        0        
C1        C        0.666667        0.083334        0.0        0        
C3        C        0.666667        0.130952        0.0        0        
C1        C        0.666667        0.154762        0.0        0        
C3        C        0.666667        0.202381        0.0        0        
C1        C        0.666667        0.226191        0.0        0        
C3        C        0.666667        0.273809        0.0        0        
C1        C        0.666667        0.297619        0.0        0        
C3        C        0.666667        0.345238        0.0        0        
C1        C        0.666667        0.369048        0.0        0        
C3        C        0.666667        0.416667        0.0        0        
C2        C        0.6875        0.047619        0.0        0        
C4        C        0.6875        0.023809        0.0        0        
C2        C        0.6875        0.119048        0.0        0        
C4        C        0.6875        0.095238        0.0        0        
C2        C        0.6875        0.190476        0.0        0        
C4        C        0.6875        0.166666        0.0        0        
C2        C        0.6875        0.261905        0.0        0        
C4        C        0.6875        0.238095        0.0        0        
C2        C        0.6875        0.333333        0.0        0        
C4        C        0.6875        0.309524        0.0        0        
C2        C        0.6875        0.404762        0.0        0        
C4        C        0.6875        0.380952        0.0        0        
C1        C        0.708333        0.011905        0.0        0        
C3        C        0.708333        0.059523        0.0        0        
C1        C        0.708333        0.083334        0.0        0        
C3        C        0.708333        0.130952        0.0        0        
C1        C        0.708333        0.154762        0.0        0        
C3        C        0.708333        0.202381        0.0        0        
C1        C        0.708333        0.226191        0.0        0        
C3        C        0.708333        0.273809        0.0        0        
C1        C        0.708333        0.297619        0.0        0        
C3        C        0.708333        0.345238        0.0        0        
C1        C        0.708333        0.369048        0.0        0        
C3        C        0.708333        0.416667        0.0        0        
C2        C        0.729167        0.047619        0.0        0        
C4        C        0.729167        0.023809        0.0        0        
C2        C        0.729167        0.119048        0.0        0        
C4        C        0.729167        0.095238        0.0        0        
C2        C        0.729167        0.190476        0.0        0        
C4        C        0.729167        0.166666        0.0        0        
C2        C        0.729167        0.261905        0.0        0        
C4        C        0.729167        0.238095        0.0        0        
C2        C        0.729167        0.333333        0.0        0        
C4        C        0.729167        0.309524        0.0        0        
C2        C        0.729167        0.404762        0.0        0        
C4        C        0.729167        0.380952        0.0        0        
C1        C        0.75        0.011905        0.0        0        
C3        C        0.75        0.059523        0.0        0        
C1        C        0.75        0.083334        0.0        0        
C3        C        0.75        0.130952        0.0        0        
C1        C        0.75        0.154762        0.0        0        
C3        C        0.75        0.202381        0.0        0        
C1        C        0.75        0.226191        0.0        0        
C3        C        0.75        0.273809        0.0        0        
C1        C        0.75        0.297619        0.0        0        
C3        C        0.75        0.345238        0.0        0        
C1        C        0.75        0.369048        0.0        0        
C3        C        0.75        0.416667        0.0        0        
C2        C        0.770833        0.047619        0.0        0        
C4        C        0.770833        0.023809        0.0        0        
C2        C        0.770833        0.119048        0.0        0        
C4        C        0.770833        0.095238        0.0        0        
C2        C        0.770833        0.190476        0.0        0        
C4        C        0.770833        0.166666        0.0        0        
C2        C        0.770833        0.261905        0.0        0        
C4        C        0.770833        0.238095        0.0        0        
C2        C        0.770833        0.333333        0.0        0        
C4        C        0.770833        0.309524        0.0        0        
C2        C        0.770833        0.404762        0.0        0        
C4        C        0.770833        0.380952        0.0        0        
C1        C        0.791667        0.011905        0.0        0        
C3        C        0.791667        0.059523        0.0        0        
C1        C        0.791667        0.083334        0.0        0        
C3        C        0.791667        0.130952        0.0        0        
C1        C        0.791667        0.154762        0.0        0        
C3        C        0.791667        0.202381        0.0        0        
C1        C        0.791667        0.226191        0.0        0        
C3        C        0.791667        0.273809        0.0        0        
C1        C        0.791667        0.297619        0.0        0        
C3        C        0.791667        0.345238        0.0        0        
C1        C        0.791667        0.369048        0.0        0        
C3        C        0.791667        0.416667        0.0        0        
C2        C        0.8125        0.047619        0.0        0        
C4        C        0.8125        0.023809        0.0        0        
C2        C        0.8125        0.119048        0.0        0        
C4        C        0.8125        0.095238        0.0        0        
C2        C        0.8125        0.190476        0.0        0        
C4        C        0.8125        0.166666        0.0        0        
C2        C        0.8125        0.261905        0.0        0        
C4        C        0.8125        0.238095        0.0        0        
C2        C        0.8125        0.333333        0.0        0        
C4        C        0.8125        0.309524        0.0        0        
C2        C        0.8125        0.404762        0.0        0        
C4        C        0.8125        0.380952        0.0        0        
C1        C        0.833333        0.011905        0.0        0        
C3        C        0.833333        0.059523        0.0        0        
C1        C        0.833333        0.083334        0.0        0        
C3        C        0.833333        0.130952        0.0        0        
C1        C        0.833333        0.154762        0.0        0        
C3        C        0.833333        0.202381        0.0        0        
C1        C        0.833333        0.226191        0.0        0        
C3        C        0.833333        0.273809        0.0        0        
C1        C        0.833333        0.297619        0.0        0        
C3        C        0.833333        0.345238        0.0        0        
C1        C        0.833333        0.369048        0.0        0        
C3        C        0.833333        0.416667        0.0        0        
C2        C        0.854167        0.047619        0.0        0        
C4        C        0.854167        0.023809        0.0        0        
C2        C        0.854167        0.119048        0.0        0        
C4        C        0.854167        0.095238        0.0        0        
C2        C        0.854167        0.190476        0.0        0        
C4        C        0.854167        0.166666        0.0        0        
C2        C        0.854167        0.261905        0.0        0        
C4        C        0.854167        0.238095        0.0        0        
C2        C        0.854167        0.333333        0.0        0        
C4        C        0.854167        0.309524        0.0        0        
C2        C        0.854167        0.404762        0.0        0        
C4        C        0.854167        0.380952        0.0        0        
C1        C        0.875        0.011905        0.0        0        
C3        C        0.875        0.059523        0.0        0        
C1        C        0.875        0.083334        0.0        0        
C3        C        0.875        0.130952        0.0        0        
C1        C        0.875        0.154762        0.0        0        
C3        C        0.875        0.202381        0.0        0        
C1        C        0.875        0.226191        0.0        0        
C3        C        0.875        0.273809        0.0        0        
C1        C        0.875        0.297619        0.0        0        
C3        C        0.875        0.345238        0.0        0        
C1        C        0.875        0.369048        0.0        0        
C3        C        0.875        0.416667        0.0        0        
C2        C        0.895833        0.047619        0.0        0        
C4        C        0.895833        0.023809        0.0        0        
C2        C        0.895833        0.119048        0.0        0        
C4        C        0.895833        0.095238        0.0        0        
C2        C        0.895833        0.190476        0.0        0        
C4        C        0.895833        0.166666        0.0        0        
C2        C        0.895833        0.261905        0.0        0        
C4        C        0.895833        0.238095        0.0        0        
C2        C        0.895833        0.333333        0.0        0        
C4        C        0.895833        0.309524        0.0        0        
C2        C        0.895833        0.404762        0.0        0        
C4        C        0.895833        0.380952        0.0        0        
C1        C        0.916667        0.011905        0.0        0        
C3        C        0.916667        0.059523        0.0        0        
C1        C        0.916667        0.083334        0.0        0        
C3        C        0.916667        0.130952        0.0        0        
C1        C        0.916667        0.154762        0.0        0        
C3        C        0.916667        0.202381        0.0        0        
C1        C        0.916667        0.226191        0.0        0        
C3        C        0.916667        0.273809        0.0        0        
C1        C        0.916667        0.297619        0.0        0        
C3        C        0.916667        0.345238        0.0        0        
C1        C        0.916667        0.369048        0.0        0        
C3        C        0.916667        0.416667        0.0        0        
C2        C        0.9375        0.047619        0.0        0        
C4        C        0.9375        0.023809        0.0        0        
C2        C        0.9375        0.119048        0.0        0        
C4        C        0.9375        0.095238        0.0        0        
C2        C        0.9375        0.190476        0.0        0        
C4        C        0.9375        0.166666        0.0        0        
C2        C        0.9375        0.261905        0.0        0        
C4        C        0.9375        0.238095        0.0        0        
C2        C        0.9375        0.333333        0.0        0        
C4        C        0.9375        0.309524        0.0        0        
C2        C        0.9375        0.404762        0.0        0        
C4        C        0.9375        0.380952        0.0        0        
C1        C        0.958333        0.011905        0.0        0        
C3        C        0.958333        0.059523        0.0        0        
C1        C        0.958333        0.083334        0.0        0        
C3        C        0.958333        0.130952        0.0        0        
C1        C        0.958333        0.154762        0.0        0        
C3        C        0.958333        0.202381        0.0        0        
C1        C        0.958333        0.226191        0.0        0        
C3        C        0.958333        0.273809        0.0        0        
C1        C        0.958333        0.297619        0.0        0        
C3        C        0.958333        0.345238        0.0        0        
C1        C        0.958333        0.369048        0.0        0        
C3        C        0.958333        0.416667        0.0        0        
C2        C        0.979167        0.047619        0.0        0        
C4        C        0.979167        0.023809        0.0        0        
C2        C        0.979167        0.119048        0.0        0        
C4        C        0.979167        0.095238        0.0        0        
C2        C        0.979167        0.190476        0.0        0        
C4        C        0.979167        0.166666        0.0        0        
C2        C        0.979167        0.261905        0.0        0        
C4        C        0.979167        0.238095        0.0        0        
C2        C        0.979167        0.333333        0.0        0        
C4        C        0.979167        0.309524        0.0        0        
C2        C        0.979167        0.404762        0.0        0        
C4        C        0.979167        0.380952        0.0        0        
C1        C        0.0        0.440477        0.0        0        
C1        C        0.041667        0.440477        0.0        0        
C1        C        0.083333        0.440477        0.0        0        
C1        C        0.125        0.440477        0.0        0        
C1        C        0.166667        0.440477        0.0        0        
C1        C        0.208333        0.440477        0.0        0        
C1        C        0.25        0.440477        0.0        0        
C1        C        0.291667        0.440477        0.0        0        
C1        C        0.333333        0.440477        0.0        0        
C1        C        0.375        0.440477        0.0        0        
C1        C        0.416667        0.440477        0.0        0        
C1        C        0.458333        0.440477        0.0        0        
C1        C        0.5        0.440477        0.0        0        
C1        C        0.541667        0.440477        0.0        0        
C1        C        0.583333        0.440477        0.0        0        
C1        C        0.625        0.440477        0.0        0        
C1        C        0.666667        0.440477        0.0        0        
C1        C        0.708333        0.440477        0.0        0        
C1        C        0.75        0.440477        0.0        0        
C1        C        0.791667        0.440477        0.0        0        
C1        C        0.833333        0.440477        0.0        0        
C1        C        0.875        0.440477        0.0        0        
C1        C        0.916667        0.440477        0.0        0        
C1        C        0.958333        0.440477        0.0        0        
C2        C        0.020833        0.476191        0.0        0        
C2        C        0.0625        0.476191        0.0        0        
C2        C        0.104167        0.476191        0.0        0        
C2        C        0.145833        0.476191        0.0        0        
C2        C        0.1875        0.476191        0.0        0        
C2        C        0.229167        0.476191        0.0        0        
C2        C        0.270833        0.476191        0.0        0        
C2        C        0.3125        0.476191        0.0        0        
C2        C        0.354167        0.476191        0.0        0        
C2        C        0.395833        0.476191        0.0        0        
C2        C        0.4375        0.476191        0.0        0        
C2        C        0.479167        0.476191        0.0        0        
C2        C        0.520833        0.476191        0.0        0        
C2        C        0.5625        0.476191        0.0        0        
C2        C        0.604167        0.476191        0.0        0        
C2        C        0.645833        0.476191        0.0        0        
C2        C        0.6875        0.476191        0.0        0        
C2        C        0.729167        0.476191        0.0        0        
C2        C        0.770833        0.476191        0.0        0        
C2        C        0.8125        0.476191        0.0        0        
C2        C        0.854167        0.476191        0.0        0        
C2        C        0.895833        0.476191        0.0        0        
C2        C        0.9375        0.476191        0.0        0        
C2        C        0.979167        0.476191        0.0        0        
C3        C        0.0        0.488095        0.0        0        
C3        C        0.041667        0.488095        0.0        0        
C3        C        0.083333        0.488095        0.0        0        
C3        C        0.125        0.488095        0.0        0        
C3        C        0.166667        0.488095        0.0        0        
C3        C        0.208333        0.488095        0.0        0        
C3        C        0.25        0.488095        0.0        0        
C3        C        0.291667        0.488095        0.0        0        
C3        C        0.333333        0.488095        0.0        0        
C3        C        0.375        0.488095        0.0        0        
C3        C        0.416667        0.488095        0.0        0        
C3        C        0.458333        0.488095        0.0        0        
C3        C        0.5        0.488095        0.0        0        
C3        C        0.541667        0.488095        0.0        0        
C3        C        0.583333        0.488095        0.0        0        
C3        C        0.625        0.488095        0.0        0        
C3        C        0.666667        0.488095        0.0        0        
C3        C        0.708333        0.488095        0.0        0        
C3        C        0.75        0.488095        0.0        0        
C3        C        0.791667        0.488095        0.0        0        
C3        C        0.833333        0.488095        0.0        0        
C3        C        0.875        0.488095        0.0        0        
C3        C        0.916667        0.488095        0.0        0        
C3        C        0.958333        0.488095        0.0        0        
C4        C        0.020833        0.452381        0.0        0        
C4        C        0.0625        0.452381        0.0        0        
C4        C        0.104167        0.452381        0.0        0        
C4        C        0.145833        0.452381        0.0        0        
C4        C        0.1875        0.452381        0.0        0        
C4        C        0.229167        0.452381        0.0        0        
C4        C        0.270833        0.452381        0.0        0        
C4        C        0.3125        0.452381        0.0        0        
C4        C        0.354167        0.452381        0.0        0        
C4        C        0.395833        0.452381        0.0        0        
C4        C        0.4375        0.452381        0.0        0        
C4        C        0.479167        0.452381        0.0        0        
C4        C        0.520833        0.452381        0.0        0        
C4        C        0.5625        0.452381        0.0        0        
C4        C        0.604167        0.452381        0.0        0        
C4        C        0.645833        0.452381        0.0        0        
C4        C        0.6875        0.452381        0.0        0        
C4        C        0.729167        0.452381        0.0        0        
C4        C        0.770833        0.452381        0.0        0        
C4        C        0.8125        0.452381        0.0        0        
C4        C        0.854167        0.452381        0.0        0        
C4        C        0.895833        0.452381        0.0        0        
C4        C        0.9375        0.452381        0.0        0        
C4        C        0.979167        0.452381        0.0        0        
C1        C        0.0        0.511905        0.0        0        
C1        C        0.041667        0.511905        0.0        0        
C1        C        0.083333        0.511905        0.0        0        
C1        C        0.125        0.511905        0.0        0        
C1        C        0.166667        0.511905        0.0        0        
C1        C        0.208333        0.511905        0.0        0        
C1        C        0.25        0.511905        0.0        0        
C1        C        0.291667        0.511905        0.0        0        
C1        C        0.333333        0.511905        0.0        0        
C1        C        0.375        0.511905        0.0        0        
C1        C        0.416667        0.511905        0.0        0        
C1        C        0.458333        0.511905        0.0        0        
C1        C        0.5        0.511905        0.0        0        
C1        C        0.541667        0.511905        0.0        0        
C1        C        0.583333        0.511905        0.0        0        
C1        C        0.625        0.511905        0.0        0        
C1        C        0.666667        0.511905        0.0        0        
C1        C        0.708333        0.511905        0.0        0        
C1        C        0.75        0.511905        0.0        0        
C1        C        0.791667        0.511905        0.0        0        
C1        C        0.833333        0.511905        0.0        0        
C1        C        0.875        0.511905        0.0        0        
C1        C        0.916667        0.511905        0.0        0        
C1        C        0.958333        0.511905        0.0        0        
C2        C        0.020833        0.547619        0.0        0        
C2        C        0.0625        0.547619        0.0        0        
C2        C        0.104167        0.547619        0.0        0        
C2        C        0.145833        0.547619        0.0        0        
C2        C        0.1875        0.547619        0.0        0        
C2        C        0.229167        0.547619        0.0        0        
C2        C        0.270833        0.547619        0.0        0        
C2        C        0.3125        0.547619        0.0        0        
C2        C        0.354167        0.547619        0.0        0        
C2        C        0.395833        0.547619        0.0        0        
C2        C        0.4375        0.547619        0.0        0        
C2        C        0.479167        0.547619        0.0        0        
C2        C        0.520833        0.547619        0.0        0        
C2        C        0.5625        0.547619        0.0        0        
C2        C        0.604167        0.547619        0.0        0        
C2        C        0.645833        0.547619        0.0        0        
C2        C        0.6875        0.547619        0.0        0        
C2        C        0.729167        0.547619        0.0        0        
C2        C        0.770833        0.547619        0.0        0        
C2        C        0.8125        0.547619        0.0        0        
C2        C        0.854167        0.547619        0.0        0        
C2        C        0.895833        0.547619        0.0        0        
C2        C        0.9375        0.547619        0.0        0        
C2        C        0.979167        0.547619        0.0        0        
C3        C        0.0        0.559524        0.0        0        
C3        C        0.041667        0.559524        0.0        0        
C3        C        0.083333        0.559524        0.0        0        
C3        C        0.125        0.559524        0.0        0        
C3        C        0.166667        0.559524        0.0        0        
C3        C        0.208333        0.559524        0.0        0        
C3        C        0.25        0.559524        0.0        0        
C3        C        0.291667        0.559524        0.0        0        
C3        C        0.333333        0.559524        0.0        0        
C3        C        0.375        0.559524        0.0        0        
C3        C        0.416667        0.559524        0.0        0        
C3        C        0.458333        0.559524        0.0        0        
C3        C        0.5        0.559524        0.0        0        
C3        C        0.541667        0.559524        0.0        0        
C3        C        0.583333        0.559524        0.0        0        
C3        C        0.625        0.559524        0.0        0        
C3        C        0.666667        0.559524        0.0        0        
C3        C        0.708333        0.559524        0.0        0        
C3        C        0.75        0.559524        0.0        0        
C3        C        0.791667        0.559524        0.0        0        
C3        C        0.833333        0.559524        0.0        0        
C3        C        0.875        0.559524        0.0        0        
C3        C        0.916667        0.559524        0.0        0        
C3        C        0.958333        0.559524        0.0        0        
C4        C        0.020833        0.523809        0.0        0        
C4        C        0.0625        0.523809        0.0        0        
C4        C        0.104167        0.523809        0.0        0        
C4        C        0.145833        0.523809        0.0        0        
C4        C        0.1875        0.523809        0.0        0        
C4        C        0.229167        0.523809        0.0        0        
C4        C        0.270833        0.523809        0.0        0        
C4        C        0.3125        0.523809        0.0        0        
C4        C        0.354167        0.523809        0.0        0        
C4        C        0.395833        0.523809        0.0        0        
C4        C        0.4375        0.523809        0.0        0        
C4        C        0.479167        0.523809        0.0        0        
C4        C        0.520833        0.523809        0.0        0        
C4        C        0.5625        0.523809        0.0        0        
C4        C        0.604167        0.523809        0.0        0        
C4        C        0.645833        0.523809        0.0        0        
C4        C        0.6875        0.523809        0.0        0        
C4        C        0.729167        0.523809        0.0        0        
C4        C        0.770833        0.523809        0.0        0        
C4        C        0.8125        0.523809        0.0        0        
C4        C        0.854167        0.523809        0.0        0        
C4        C        0.895833        0.523809        0.0        0        
C4        C        0.9375        0.523809        0.0        0        
C4        C        0.979167        0.523809        0.0        0        
C1        C        0.0        0.583334        0.0        0        
C1        C        0.041667        0.583334        0.0        0        
C1        C        0.083333        0.583334        0.0        0        
C1        C        0.125        0.583334        0.0        0        
C1        C        0.166667        0.583334        0.0        0        
C1        C        0.208333        0.583334        0.0        0        
C1        C        0.25        0.583334        0.0        0        
C1        C        0.291667        0.583334        0.0        0        
C1        C        0.333333        0.583334        0.0        0        
C1        C        0.375        0.583334        0.0        0        
C1        C        0.416667        0.583334        0.0        0        
C1        C        0.458333        0.583334        0.0        0        
C1        C        0.5        0.583334        0.0        0        
C1        C        0.541667        0.583334        0.0        0        
C1        C        0.583333        0.583334        0.0        0        
C1        C        0.625        0.583334        0.0        0        
C1        C        0.666667        0.583334        0.0        0        
C1        C        0.708333        0.583334        0.0        0        
C1        C        0.75        0.583334        0.0        0        
C1        C        0.791667        0.583334        0.0        0        
C1        C        0.833333        0.583334        0.0        0        
C1        C        0.875        0.583334        0.0        0        
C1        C        0.916667        0.583334        0.0        0        
C1        C        0.958333        0.583334        0.0        0        
C2        C        0.020833        0.619048        0.0        0        
C2        C        0.0625        0.619048        0.0        0        
C2        C        0.104167        0.619048        0.0        0        
C2        C        0.145833        0.619048        0.0        0        
C2        C        0.1875        0.619048        0.0        0        
C2        C        0.229167        0.619048        0.0        0        
C2        C        0.270833        0.619048        0.0        0        
C2        C        0.3125        0.619048        0.0        0        
C2        C        0.354167        0.619048        0.0        0        
C2        C        0.395833        0.619048        0.0        0        
C2        C        0.4375        0.619048        0.0        0        
C2        C        0.479167        0.619048        0.0        0        
C2        C        0.520833        0.619048        0.0        0        
C2        C        0.5625        0.619048        0.0        0        
C2        C        0.604167        0.619048        0.0        0        
C2        C        0.645833        0.619048        0.0        0        
C2        C        0.6875        0.619048        0.0        0        
C2        C        0.729167        0.619048        0.0        0        
C2        C        0.770833        0.619048        0.0        0        
C2        C        0.8125        0.619048        0.0        0        
C2        C        0.854167        0.619048        0.0        0        
C2        C        0.895833        0.619048        0.0        0        
C2        C        0.9375        0.619048        0.0        0        
C2        C        0.979167        0.619048        0.0        0        
C3        C        0.0        0.630952        0.0        0        
C3        C        0.041667        0.630952        0.0        0        
C3        C        0.083333        0.630952        0.0        0        
C3        C        0.125        0.630952        0.0        0        
C3        C        0.166667        0.630952        0.0        0        
C3        C        0.208333        0.630952        0.0        0        
C3        C        0.25        0.630952        0.0        0        
C3        C        0.291667        0.630952        0.0        0        
C3        C        0.333333        0.630952        0.0        0        
C3        C        0.375        0.630952        0.0        0        
C3        C        0.416667        0.630952        0.0        0        
C3        C        0.458333        0.630952        0.0        0        
C3        C        0.5        0.630952        0.0        0        
C3        C        0.541667        0.630952        0.0        0        
C3        C        0.583333        0.630952        0.0        0        
C3        C        0.625        0.630952        0.0        0        
C3        C        0.666667        0.630952        0.0        0        
C3        C        0.708333        0.630952        0.0        0        
C3        C        0.75        0.630952        0.0        0        
C3        C        0.791667        0.630952        0.0        0        
C3        C        0.833333        0.630952        0.0        0        
C3        C        0.875        0.630952        0.0        0        
C3        C        0.916667        0.630952        0.0        0        
C3        C        0.958333        0.630952        0.0        0        
C4        C        0.020833        0.595238        0.0        0        
C4        C        0.0625        0.595238        0.0        0        
C4        C        0.104167        0.595238        0.0        0        
C4        C        0.145833        0.595238        0.0        0        
C4        C        0.1875        0.595238        0.0        0        
C4        C        0.229167        0.595238        0.0        0        
C4        C        0.270833        0.595238        0.0        0        
C4        C        0.3125        0.595238        0.0        0        
C4        C        0.354167        0.595238        0.0        0        
C4        C        0.395833        0.595238        0.0        0        
C4        C        0.4375        0.595238        0.0        0        
C4        C        0.479167        0.595238        0.0        0        
C4        C        0.520833        0.595238        0.0        0        
C4        C        0.5625        0.595238        0.0        0        
C4        C        0.604167        0.595238        0.0        0        
C4        C        0.645833        0.595238        0.0        0        
C4        C        0.6875        0.595238        0.0        0        
C4        C        0.729167        0.595238        0.0        0        
C4        C        0.770833        0.595238        0.0        0        
C4        C        0.8125        0.595238        0.0        0        
C4        C        0.854167        0.595238        0.0        0        
C4        C        0.895833        0.595238        0.0        0        
C4        C        0.9375        0.595238        0.0        0        
C4        C        0.979167        0.595238        0.0        0        
C1        C        0.0        0.654762        0.0        0        
C1        C        0.041667        0.654762        0.0        0        
C1        C        0.083333        0.654762        0.0        0        
C1        C        0.125        0.654762        0.0        0        
C1        C        0.166667        0.654762        0.0        0        
C1        C        0.208333        0.654762        0.0        0        
C1        C        0.25        0.654762        0.0        0        
C1        C        0.291667        0.654762        0.0        0        
C1        C        0.333333        0.654762        0.0        0        
C1        C        0.375        0.654762        0.0        0        
C1        C        0.416667        0.654762        0.0        0        
C1        C        0.458333        0.654762        0.0        0        
C1        C        0.5        0.654762        0.0        0        
C1        C        0.541667        0.654762        0.0        0        
C1        C        0.583333        0.654762        0.0        0        
C1        C        0.625        0.654762        0.0        0        
C1        C        0.666667        0.654762        0.0        0        
C1        C        0.708333        0.654762        0.0        0        
C1        C        0.75        0.654762        0.0        0        
C1        C        0.791667        0.654762        0.0        0        
C1        C        0.833333        0.654762        0.0        0        
C1        C        0.875        0.654762        0.0        0        
C1        C        0.916667        0.654762        0.0        0        
C1        C        0.958333        0.654762        0.0        0        
C2        C        0.020833        0.690476        0.0        0        
C2        C        0.0625        0.690476        0.0        0        
C2        C        0.104167        0.690476        0.0        0        
C2        C        0.145833        0.690476        0.0        0        
C2        C        0.1875        0.690476        0.0        0        
C2        C        0.229167        0.690476        0.0        0        
C2        C        0.270833        0.690476        0.0        0        
C2        C        0.3125        0.690476        0.0        0        
C2        C        0.354167        0.690476        0.0        0        
C2        C        0.395833        0.690476        0.0        0        
C2        C        0.4375        0.690476        0.0        0        
C2        C        0.479167        0.690476        0.0        0        
C2        C        0.520833        0.690476        0.0        0        
C2        C        0.5625        0.690476        0.0        0        
C2        C        0.604167        0.690476        0.0        0        
C2        C        0.645833        0.690476        0.0        0        
C2        C        0.6875        0.690476        0.0        0        
C2        C        0.729167        0.690476        0.0        0        
C2        C        0.770833        0.690476        0.0        0        
C2        C        0.8125        0.690476        0.0        0        
C2        C        0.854167        0.690476        0.0        0        
C2        C        0.895833        0.690476        0.0        0        
C2        C        0.9375        0.690476        0.0        0        
C2        C        0.979167        0.690476        0.0        0        
C3        C        0.0        0.702381        0.0        0        
C3        C        0.041667        0.702381        0.0        0        
C3        C        0.083333        0.702381        0.0        0        
C3        C        0.125        0.702381        0.0        0        
C3        C        0.166667        0.702381        0.0        0        
C3        C        0.208333        0.702381        0.0        0        
C3        C        0.25        0.702381        0.0        0        
C3        C        0.291667        0.702381        0.0        0        
C3        C        0.333333        0.702381        0.0        0        
C3        C        0.375        0.702381        0.0        0        
C3        C        0.416667        0.702381        0.0        0        
C3        C        0.458333        0.702381        0.0        0        
C3        C        0.5        0.702381        0.0        0        
C3        C        0.541667        0.702381        0.0        0        
C3        C        0.583333        0.702381        0.0        0        
C3        C        0.625        0.702381        0.0        0        
C3        C        0.666667        0.702381        0.0        0        
C3        C        0.708333        0.702381        0.0        0        
C3        C        0.75        0.702381        0.0        0        
C3        C        0.791667        0.702381        0.0        0        
C3        C        0.833333        0.702381        0.0        0        
C3        C        0.875        0.702381        0.0        0        
C3        C        0.916667        0.702381        0.0        0        
C3        C        0.958333        0.702381        0.0        0        
C4        C        0.020833        0.666666        0.0        0        
C4        C        0.0625        0.666666        0.0        0        
C4        C        0.104167        0.666666        0.0        0        
C4        C        0.145833        0.666666        0.0        0        
C4        C        0.1875        0.666666        0.0        0        
C4        C        0.229167        0.666666        0.0        0        
C4        C        0.270833        0.666666        0.0        0        
C4        C        0.3125        0.666666        0.0        0        
C4        C        0.354167        0.666666        0.0        0        
C4        C        0.395833        0.666666        0.0        0        
C4        C        0.4375        0.666666        0.0        0        
C4        C        0.479167        0.666666        0.0        0        
C4        C        0.520833        0.666666        0.0        0        
C4        C        0.5625        0.666666        0.0        0        
C4        C        0.604167        0.666666        0.0        0        
C4        C        0.645833        0.666666        0.0        0        
C4        C        0.6875        0.666666        0.0        0        
C4        C        0.729167        0.666666        0.0        0        
C4        C        0.770833        0.666666        0.0        0        
C4        C        0.8125        0.666666        0.0        0        
C4        C        0.854167        0.666666        0.0        0        
C4        C        0.895833        0.666666        0.0        0        
C4        C        0.9375        0.666666        0.0        0        
C4        C        0.979167        0.666666        0.0        0        
C1        C        0.0        0.726191        0.0        0        
C1        C        0.041667        0.726191        0.0        0        
C1        C        0.083333        0.726191        0.0        0        
C1        C        0.125        0.726191        0.0        0        
C1        C        0.166667        0.726191        0.0        0        
C1        C        0.208333        0.726191        0.0        0        
C1        C        0.25        0.726191        0.0        0        
C1        C        0.291667        0.726191        0.0        0        
C1        C        0.333333        0.726191        0.0        0        
C1        C        0.375        0.726191        0.0        0        
C1        C        0.416667        0.726191        0.0        0        
C1        C        0.458333        0.726191        0.0        0        
C1        C        0.5        0.726191        0.0        0        
C1        C        0.541667        0.726191        0.0        0        
C1        C        0.583333        0.726191        0.0        0        
C1        C        0.625        0.726191        0.0        0        
C1        C        0.666667        0.726191        0.0        0        
C1        C        0.708333        0.726191        0.0        0        
C1        C        0.75        0.726191        0.0        0        
C1        C        0.791667        0.726191        0.0        0        
C1        C        0.833333        0.726191        0.0        0        
C1        C        0.875        0.726191        0.0        0        
C1        C        0.916667        0.726191        0.0        0        
C1        C        0.958333        0.726191        0.0        0        
C2        C        0.020833        0.761905        0.0        0        
C2        C        0.0625        0.761905        0.0        0        
C2        C        0.104167        0.761905        0.0        0        
C2        C        0.145833        0.761905        0.0        0        
C2        C        0.1875        0.761905        0.0        0        
C2        C        0.229167        0.761905        0.0        0        
C2        C        0.270833        0.761905        0.0        0        
C2        C        0.3125        0.761905        0.0        0        
C2        C        0.354167        0.761905        0.0        0        
C2        C        0.395833        0.761905        0.0        0        
C2        C        0.4375        0.761905        0.0        0        
C2        C        0.479167        0.761905        0.0        0        
C2        C        0.520833        0.761905        0.0        0        
C2        C        0.5625        0.761905        0.0        0        
C2        C        0.604167        0.761905        0.0        0        
C2        C        0.645833        0.761905        0.0        0        
C2        C        0.6875        0.761905        0.0        0        
C2        C        0.729167        0.761905        0.0        0        
C2        C        0.770833        0.761905        0.0        0        
C2        C        0.8125        0.761905        0.0        0        
C2        C        0.854167        0.761905        0.0        0        
C2        C        0.895833        0.761905        0.0        0        
C2        C        0.9375        0.761905        0.0        0        
C2        C        0.979167        0.761905        0.0        0        
C3        C        0.0        0.773809        0.0        0        
C3        C        0.041667        0.773809        0.0        0        
C3        C        0.083333        0.773809        0.0        0        
C3        C        0.125        0.773809        0.0        0        
C3        C        0.166667        0.773809        0.0        0        
C3        C        0.208333        0.773809        0.0        0        
C3        C        0.25        0.773809        0.0        0        
C3        C        0.291667        0.773809        0.0        0        
C3        C        0.333333        0.773809        0.0        0        
C3        C        0.375        0.773809        0.0        0        
C3        C        0.416667        0.773809        0.0        0        
C3        C        0.458333        0.773809        0.0        0        
C3        C        0.5        0.773809        0.0        0        
C3        C        0.541667        0.773809        0.0        0        
C3        C        0.583333        0.773809        0.0        0        
C3        C        0.625        0.773809        0.0        0        
C3        C        0.666667        0.773809        0.0        0        
C3        C        0.708333        0.773809        0.0        0        
C3        C        0.75        0.773809        0.0        0        
C3        C        0.791667        0.773809        0.0        0        
C3        C        0.833333        0.773809        0.0        0        
C3        C        0.875        0.773809        0.0        0        
C3        C        0.916667        0.773809        0.0        0        
C3        C        0.958333        0.773809        0.0        0        
C4        C        0.020833        0.738095        0.0        0        
C4        C        0.0625        0.738095        0.0        0        
C4        C        0.104167        0.738095        0.0        0        
C4        C        0.145833        0.738095        0.0        0        
C4        C        0.1875        0.738095        0.0        0        
C4        C        0.229167        0.738095        0.0        0        
C4        C        0.270833        0.738095        0.0        0        
C4        C        0.3125        0.738095        0.0        0        
C4        C        0.354167        0.738095        0.0        0        
C4        C        0.395833        0.738095        0.0        0        
C4        C        0.4375        0.738095        0.0        0        
C4        C        0.479167        0.738095        0.0        0        
C4        C        0.520833        0.738095        0.0        0        
C4        C        0.5625        0.738095        0.0        0        
C4        C        0.604167        0.738095        0.0        0        
C4        C        0.645833        0.738095        0.0        0        
C4        C        0.6875        0.738095        0.0        0        
C4        C        0.729167        0.738095        0.0        0        
C4        C        0.770833        0.738095        0.0        0        
C4        C        0.8125        0.738095        0.0        0        
C4        C        0.854167        0.738095        0.0        0        
C4        C        0.895833        0.738095        0.0        0        
C4        C        0.9375        0.738095        0.0        0        
C4        C        0.979167        0.738095        0.0        0        
C1        C        0.0        0.79762        0.0        0        
C1        C        0.041667        0.79762        0.0        0        
C1        C        0.083333        0.79762        0.0        0        
C1        C        0.125        0.79762        0.0        0        
C1        C        0.166667        0.79762        0.0        0        
C1        C        0.208333        0.79762        0.0        0        
C1        C        0.25        0.79762        0.0        0        
C1        C        0.291667        0.79762        0.0        0        
C1        C        0.333333        0.79762        0.0        0        
C1        C        0.375        0.79762        0.0        0        
C1        C        0.416667        0.79762        0.0        0        
C1        C        0.458333        0.79762        0.0        0        
C1        C        0.5        0.79762        0.0        0        
C1        C        0.541667        0.79762        0.0        0        
C1        C        0.583333        0.79762        0.0        0        
C1        C        0.625        0.79762        0.0        0        
C1        C        0.666667        0.79762        0.0        0        
C1        C        0.708333        0.79762        0.0        0        
C1        C        0.75        0.79762        0.0        0        
C1        C        0.791667        0.79762        0.0        0        
C1        C        0.833333        0.79762        0.0        0        
C1        C        0.875        0.79762        0.0        0        
C1        C        0.916667        0.79762        0.0        0        
C1        C        0.958333        0.79762        0.0        0        
C2        C        0.020833        0.833334        0.0        0        
C2        C        0.0625        0.833334        0.0        0        
C2        C        0.104167        0.833334        0.0        0        
C2        C        0.145833        0.833334        0.0        0        
C2        C        0.1875        0.833334        0.0        0        
C2        C        0.229167        0.833334        0.0        0        
C2        C        0.270833        0.833334        0.0        0        
C2        C        0.3125        0.833334        0.0        0        
C2        C        0.354167        0.833334        0.0        0        
C2        C        0.395833        0.833334        0.0        0        
C2        C        0.4375        0.833334        0.0        0        
C2        C        0.479167        0.833334        0.0        0        
C2        C        0.520833        0.833334        0.0        0        
C2        C        0.5625        0.833334        0.0        0        
C2        C        0.604167        0.833334        0.0        0        
C2        C        0.645833        0.833334        0.0        0        
C2        C        0.6875        0.833334        0.0        0        
C2        C        0.729167        0.833334        0.0        0        
C2        C        0.770833        0.833334        0.0        0        
C2        C        0.8125        0.833334        0.0        0        
C2        C        0.854167        0.833334        0.0        0        
C2        C        0.895833        0.833334        0.0        0        
C2        C        0.9375        0.833334        0.0        0        
C2        C        0.979167        0.833334        0.0        0        
C3        C        0.0        0.845238        0.0        0        
C3        C        0.041667        0.845238        0.0        0        
C3        C        0.083333        0.845238        0.0        0        
C3        C        0.125        0.845238        0.0        0        
C3        C        0.166667        0.845238        0.0        0        
C3        C        0.208333        0.845238        0.0        0        
C3        C        0.25        0.845238        0.0        0        
C3        C        0.291667        0.845238        0.0        0        
C3        C        0.333333        0.845238        0.0        0        
C3        C        0.375        0.845238        0.0        0        
C3        C        0.416667        0.845238        0.0        0        
C3        C        0.458333        0.845238        0.0        0        
C3        C        0.5        0.845238        0.0        0        
C3        C        0.541667        0.845238        0.0        0        
C3        C        0.583333        0.845238        0.0        0        
C3        C        0.625        0.845238        0.0        0        
C3        C        0.666667        0.845238        0.0        0        
C3        C        0.708333        0.845238        0.0        0        
C3        C        0.75        0.845238        0.0        0        
C3        C        0.791667        0.845238        0.0        0        
C3        C        0.833333        0.845238        0.0        0        
C3        C        0.875        0.845238        0.0        0        
C3        C        0.916667        0.845238        0.0        0        
C3        C        0.958333        0.845238        0.0        0        
C4        C        0.020833        0.809524        0.0        0        
C4        C        0.0625        0.809524        0.0        0        
C4        C        0.104167        0.809524        0.0        0        
C4        C        0.145833        0.809524        0.0        0        
C4        C        0.1875        0.809524        0.0        0        
C4        C        0.229167        0.809524        0.0        0        
C4        C        0.270833        0.809524        0.0        0        
C4        C        0.3125        0.809524        0.0        0        
C4        C        0.354167        0.809524        0.0        0        
C4        C        0.395833        0.809524        0.0        0        
C4        C        0.4375        0.809524        0.0        0        
C4        C        0.479167        0.809524        0.0        0        
C4        C        0.520833        0.809524        0.0        0        
C4        C        0.5625        0.809524        0.0        0        
C4        C        0.604167        0.809524        0.0        0        
C4        C        0.645833        0.809524        0.0        0        
C4        C        0.6875        0.809524        0.0        0        
C4        C        0.729167        0.809524        0.0        0        
C4        C        0.770833        0.809524        0.0        0        
C4        C        0.8125        0.809524        0.0        0        
C4        C        0.854167        0.809524        0.0        0        
C4        C        0.895833        0.809524        0.0        0        
C4        C        0.9375        0.809524        0.0        0        
C4        C        0.979167        0.809524        0.0        0        
C1        C        0.0        0.869048        0.0        0        
C1        C        0.041667        0.869048        0.0        0        
C1        C        0.083333        0.869048        0.0        0        
C1        C        0.125        0.869048        0.0        0        
C1        C        0.166667        0.869048        0.0        0        
C1        C        0.208333        0.869048        0.0        0        
C1        C        0.25        0.869048        0.0        0        
C1        C        0.291667        0.869048        0.0        0        
C1        C        0.333333        0.869048        0.0        0        
C1        C        0.375        0.869048        0.0        0        
C1        C        0.416667        0.869048        0.0        0        
C1        C        0.458333        0.869048        0.0        0        
C1        C        0.5        0.869048        0.0        0        
C1        C        0.541667        0.869048        0.0        0        
C1        C        0.583333        0.869048        0.0        0        
C1        C        0.625        0.869048        0.0        0        
C1        C        0.666667        0.869048        0.0        0        
C1        C        0.708333        0.869048        0.0        0        
C1        C        0.75        0.869048        0.0        0        
C1        C        0.791667        0.869048        0.0        0        
C1        C        0.833333        0.869048        0.0        0        
C1        C        0.875        0.869048        0.0        0        
C1        C        0.916667        0.869048        0.0        0        
C1        C        0.958333        0.869048        0.0        0        
C2        C        0.020833        0.904762        0.0        0        
C2        C        0.0625        0.904762        0.0        0        
C2        C        0.104167        0.904762        0.0        0        
C2        C        0.145833        0.904762        0.0        0        
C2        C        0.1875        0.904762        0.0        0        
C2        C        0.229167        0.904762        0.0        0        
C2        C        0.270833        0.904762        0.0        0        
C2        C        0.3125        0.904762        0.0        0        
C2        C        0.354167        0.904762        0.0        0        
C2        C        0.395833        0.904762        0.0        0        
C2        C        0.4375        0.904762        0.0        0        
C2        C        0.479167        0.904762        0.0        0        
C2        C        0.520833        0.904762        0.0        0        
C2        C        0.5625        0.904762        0.0        0        
C2        C        0.604167        0.904762        0.0        0        
C2        C        0.645833        0.904762        0.0        0        
C2        C        0.6875        0.904762        0.0        0        
C2        C        0.729167        0.904762        0.0        0        
C2        C        0.770833        0.904762        0.0        0        
C2        C        0.8125        0.904762        0.0        0        
C2        C        0.854167        0.904762        0.0        0        
C2        C        0.895833        0.904762        0.0        0        
C2        C        0.9375        0.904762        0.0        0        
C2        C        0.979167        0.904762        0.0        0        
C3        C        0.0        0.916667        0.0        0        
C3        C        0.041667        0.916667        0.0        0        
C3        C        0.083333        0.916667        0.0        0        
C3        C        0.125        0.916667        0.0        0        
C3        C        0.166667        0.916667        0.0        0        
C3        C        0.208333        0.916667        0.0        0        
C3        C        0.25        0.916667        0.0        0        
C3        C        0.291667        0.916667        0.0        0        
C3        C        0.333333        0.916667        0.0        0        
C3        C        0.375        0.916667        0.0        0        
C3        C        0.416667        0.916667        0.0        0        
C3        C        0.458333        0.916667        0.0        0        
C3        C        0.5        0.916667        0.0        0        
C3        C        0.541667        0.916667        0.0        0        
C3        C        0.583333        0.916667        0.0        0        
C3        C        0.625        0.916667        0.0        0        
C3        C        0.666667        0.916667        0.0        0        
C3        C        0.708333        0.916667        0.0        0        
C3        C        0.75        0.916667        0.0        0        
C3        C        0.791667        0.916667        0.0        0        
C3        C        0.833333        0.916667        0.0        0        
C3        C        0.875        0.916667        0.0        0        
C3        C        0.916667        0.916667        0.0        0        
C3        C        0.958333        0.916667        0.0        0        
C4        C        0.020833        0.880952        0.0        0        
C4        C        0.0625        0.880952        0.0        0        
C4        C        0.104167        0.880952        0.0        0        
C4        C        0.145833        0.880952        0.0        0        
C4        C        0.1875        0.880952        0.0        0        
C4        C        0.229167        0.880952        0.0        0        
C4        C        0.270833        0.880952        0.0        0        
C4        C        0.3125        0.880952        0.0        0        
C4        C        0.354167        0.880952        0.0        0        
C4        C        0.395833        0.880952        0.0        0        
C4        C        0.4375        0.880952        0.0        0        
C4        C        0.479167        0.880952        0.0        0        
C4        C        0.520833        0.880952        0.0        0        
C4        C        0.5625        0.880952        0.0        0        
C4        C        0.604167        0.880952        0.0        0        
C4        C        0.645833        0.880952        0.0        0        
C4        C        0.6875        0.880952        0.0        0        
C4        C        0.729167        0.880952        0.0        0        
C4        C        0.770833        0.880952        0.0        0        
C4        C        0.8125        0.880952        0.0        0        
C4        C        0.854167        0.880952        0.0        0        
C4        C        0.895833        0.880952        0.0        0        
C4        C        0.9375        0.880952        0.0        0        
C4        C        0.979167        0.880952        0.0        0        
C1        C        0.0        0.940477        0.0        0        
C1        C        0.041667        0.940477        0.0        0        
C1        C        0.083333        0.940477        0.0        0        
C1        C        0.125        0.940477        0.0        0        
C1        C        0.166667        0.940477        0.0        0        
C1        C        0.208333        0.940477        0.0        0        
C1        C        0.25        0.940477        0.0        0        
C1        C        0.291667        0.940477        0.0        0        
C1        C        0.333333        0.940477        0.0        0        
C1        C        0.375        0.940477        0.0        0        
C1        C        0.416667        0.940477        0.0        0        
C1        C        0.458333        0.940477        0.0        0        
C1        C        0.5        0.940477        0.0        0        
C1        C        0.541667        0.940477        0.0        0        
C1        C        0.583333        0.940477        0.0        0        
C1        C        0.625        0.940477        0.0        0        
C1        C        0.666667        0.940477        0.0        0        
C1        C        0.708333        0.940477        0.0        0        
C1        C        0.75        0.940477        0.0        0        
C1        C        0.791667        0.940477        0.0        0        
C1        C        0.833333        0.940477        0.0        0        
C1        C        0.875        0.940477        0.0        0        
C1        C        0.916667        0.940477        0.0        0        
C1        C        0.958333        0.940477        0.0        0        
C2        C        0.020833        0.976191        0.0        0        
C2        C        0.0625        0.976191        0.0        0        
C2        C        0.104167        0.976191        0.0        0        
C2        C        0.145833        0.976191        0.0        0        
C2        C        0.1875        0.976191        0.0        0        
C2        C        0.229167        0.976191        0.0        0        
C2        C        0.270833        0.976191        0.0        0        
C2        C        0.3125        0.976191        0.0        0        
C2        C        0.354167        0.976191        0.0        0        
C2        C        0.395833        0.976191        0.0        0        
C2        C        0.4375        0.976191        0.0        0        
C2        C        0.479167        0.976191        0.0        0        
C2        C        0.520833        0.976191        0.0        0        
C2        C        0.5625        0.976191        0.0        0        
C2        C        0.604167        0.976191        0.0        0        
C2        C        0.645833        0.976191        0.0        0        
C2        C        0.6875        0.976191        0.0        0        
C2        C        0.729167        0.976191        0.0        0        
C2        C        0.770833        0.976191        0.0        0        
C2        C        0.8125        0.976191        0.0        0        
C2        C        0.854167        0.976191        0.0        0        
C2        C        0.895833        0.976191        0.0        0        
C2        C        0.9375        0.976191        0.0        0        
C2        C        0.979167        0.976191        0.0        0        
C3        C        0.0        0.988095        0.0        0        
C3        C        0.041667        0.988095        0.0        0        
C3        C        0.083333        0.988095        0.0        0        
C3        C        0.125        0.988095        0.0        0        
C3        C        0.166667        0.988095        0.0        0        
C3        C        0.208333        0.988095        0.0        0        
C3        C        0.25        0.988095        0.0        0        
C3        C        0.291667        0.988095        0.0        0        
C3        C        0.333333        0.988095        0.0        0        
C3        C        0.375        0.988095        0.0        0        
C3        C        0.416667        0.988095        0.0        0        
C3        C        0.458333        0.988095        0.0        0        
C3        C        0.5        0.988095        0.0        0        
C3        C        0.541667        0.988095        0.0        0        
C3        C        0.583333        0.988095        0.0        0        
C3        C        0.625        0.988095        0.0        0        
C3        C        0.666667        0.988095        0.0        0        
C3        C        0.708333        0.988095        0.0        0        
C3        C        0.75        0.988095        0.0        0        
C3        C        0.791667        0.988095        0.0        0        
C3        C        0.833333        0.988095        0.0        0        
C3        C        0.875        0.988095        0.0        0        
C3        C        0.916667        0.988095        0.0        0        
C3        C        0.958333        0.988095        0.0        0        
C4        C        0.020833        0.952381        0.0        0        
C4        C        0.0625        0.952381        0.0        0        
C4        C        0.104167        0.952381        0.0        0        
C4        C        0.145833        0.952381        0.0        0        
C4        C        0.1875        0.952381        0.0        0        
C4        C        0.229167        0.952381        0.0        0        
C4        C        0.270833        0.952381        0.0        0        
C4        C        0.3125        0.952381        0.0        0        
C4        C        0.354167        0.952381        0.0        0        
C4        C        0.395833        0.952381        0.0        0        
C4        C        0.4375        0.952381        0.0        0        
C4        C        0.479167        0.952381        0.0        0        
C4        C        0.520833        0.952381        0.0        0        
C4        C        0.5625        0.952381        0.0        0        
C4        C        0.604167        0.952381        0.0        0        
C4        C        0.645833        0.952381        0.0        0        
C4        C        0.6875        0.952381        0.0        0        
C4        C        0.729167        0.952381        0.0        0        
C4        C        0.770833        0.952381        0.0        0        
C4        C        0.8125        0.952381        0.0        0        
C4        C        0.854167        0.952381        0.0        0        
C4        C        0.895833        0.952381        0.0        0        
C4        C        0.9375        0.952381        0.0        0        
C4        C        0.979167        0.952381        0.0        0        
C1        C        0.0        0.011905        0.24452554744525548        0        
C2        C        0.020833        0.047619        0.24452554744525548        0        
C3        C        0.0        0.059523        0.24452554744525548        0        
C4        C        0.020833        0.023809        0.24452554744525548        0        
C1        C        0.0        0.083334        0.24452554744525548        0        
C2        C        0.020833        0.119048        0.24452554744525548        0        
C3        C        0.0        0.130952        0.24452554744525548        0        
C4        C        0.020833        0.095238        0.24452554744525548        0        
C1        C        0.0        0.154762        0.24452554744525548        0        
C2        C        0.020833        0.190476        0.24452554744525548        0        
C3        C        0.0        0.202381        0.24452554744525548        0        
C4        C        0.020833        0.166666        0.24452554744525548        0        
C1        C        0.0        0.226191        0.24452554744525548        0        
C2        C        0.020833        0.261905        0.24452554744525548        0        
C3        C        0.0        0.273809        0.24452554744525548        0        
C4        C        0.020833        0.238095        0.24452554744525548        0        
C1        C        0.0        0.297619        0.24452554744525548        0        
C2        C        0.020833        0.333333        0.24452554744525548        0        
C3        C        0.0        0.345238        0.24452554744525548        0        
C4        C        0.020833        0.309524        0.24452554744525548        0        
C1        C        0.0        0.369048        0.24452554744525548        0        
C2        C        0.020833        0.404762        0.24452554744525548        0        
C3        C        0.0        0.416667        0.24452554744525548        0        
C4        C        0.020833        0.380952        0.24452554744525548        0        
C1        C        0.041667        0.011905        0.24452554744525548        0        
C2        C        0.0625        0.047619        0.24452554744525548        0        
C3        C        0.041667        0.059523        0.24452554744525548        0        
C4        C        0.0625        0.023809        0.24452554744525548        0        
C1        C        0.041667        0.083334        0.24452554744525548        0        
C2        C        0.0625        0.119048        0.24452554744525548        0        
C3        C        0.041667        0.130952        0.24452554744525548        0        
C4        C        0.0625        0.095238        0.24452554744525548        0        
C1        C        0.041667        0.154762        0.24452554744525548        0        
C2        C        0.0625        0.190476        0.24452554744525548        0        
C3        C        0.041667        0.202381        0.24452554744525548        0        
C4        C        0.0625        0.166666        0.24452554744525548        0        
C1        C        0.041667        0.226191        0.24452554744525548        0        
C2        C        0.0625        0.261905        0.24452554744525548        0        
C3        C        0.041667        0.273809        0.24452554744525548        0        
C4        C        0.0625        0.238095        0.24452554744525548        0        
C1        C        0.041667        0.297619        0.24452554744525548        0        
C2        C        0.0625        0.333333        0.24452554744525548        0        
C3        C        0.041667        0.345238        0.24452554744525548        0        
C4        C        0.0625        0.309524        0.24452554744525548        0        
C1        C        0.041667        0.369048        0.24452554744525548        0        
C2        C        0.0625        0.404762        0.24452554744525548        0        
C3        C        0.041667        0.416667        0.24452554744525548        0        
C4        C        0.0625        0.380952        0.24452554744525548        0        
C1        C        0.083333        0.011905        0.24452554744525548        0        
C2        C        0.104167        0.047619        0.24452554744525548        0        
C3        C        0.083333        0.059523        0.24452554744525548        0        
C4        C        0.104167        0.023809        0.24452554744525548        0        
C1        C        0.083333        0.083334        0.24452554744525548        0        
C2        C        0.104167        0.119048        0.24452554744525548        0        
C3        C        0.083333        0.130952        0.24452554744525548        0        
C4        C        0.104167        0.095238        0.24452554744525548        0        
C1        C        0.083333        0.154762        0.24452554744525548        0        
C2        C        0.104167        0.190476        0.24452554744525548        0        
C3        C        0.083333        0.202381        0.24452554744525548        0        
C4        C        0.104167        0.166666        0.24452554744525548        0        
C1        C        0.083333        0.226191        0.24452554744525548        0        
C2        C        0.104167        0.261905        0.24452554744525548        0        
C3        C        0.083333        0.273809        0.24452554744525548        0        
C4        C        0.104167        0.238095        0.24452554744525548        0        
C1        C        0.083333        0.297619        0.24452554744525548        0        
C2        C        0.104167        0.333333        0.24452554744525548        0        
C3        C        0.083333        0.345238        0.24452554744525548        0        
C4        C        0.104167        0.309524        0.24452554744525548        0        
C1        C        0.083333        0.369048        0.24452554744525548        0        
C2        C        0.104167        0.404762        0.24452554744525548        0        
C3        C        0.083333        0.416667        0.24452554744525548        0        
C4        C        0.104167        0.380952        0.24452554744525548        0        
C1        C        0.125        0.011905        0.24452554744525548        0        
C2        C        0.145833        0.047619        0.24452554744525548        0        
C3        C        0.125        0.059523        0.24452554744525548        0        
C4        C        0.145833        0.023809        0.24452554744525548        0        
C1        C        0.125        0.083334        0.24452554744525548        0        
C2        C        0.145833        0.119048        0.24452554744525548        0        
C3        C        0.125        0.130952        0.24452554744525548        0        
C4        C        0.145833        0.095238        0.24452554744525548        0        
C1        C        0.125        0.154762        0.24452554744525548        0        
C2        C        0.145833        0.190476        0.24452554744525548        0        
C3        C        0.125        0.202381        0.24452554744525548        0        
C4        C        0.145833        0.166666        0.24452554744525548        0        
C1        C        0.125        0.226191        0.24452554744525548        0        
C2        C        0.145833        0.261905        0.24452554744525548        0        
C3        C        0.125        0.273809        0.24452554744525548        0        
C4        C        0.145833        0.238095        0.24452554744525548        0        
C1        C        0.125        0.297619        0.24452554744525548        0        
C2        C        0.145833        0.333333        0.24452554744525548        0        
C3        C        0.125        0.345238        0.24452554744525548        0        
C4        C        0.145833        0.309524        0.24452554744525548        0        
C1        C        0.125        0.369048        0.24452554744525548        0        
C2        C        0.145833        0.404762        0.24452554744525548        0        
C3        C        0.125        0.416667        0.24452554744525548        0        
C4        C        0.145833        0.380952        0.24452554744525548        0        
C1        C        0.166667        0.011905        0.24452554744525548        0        
C2        C        0.1875        0.047619        0.24452554744525548        0        
C3        C        0.166667        0.059523        0.24452554744525548        0        
C4        C        0.1875        0.023809        0.24452554744525548        0        
C1        C        0.166667        0.083334        0.24452554744525548        0        
C2        C        0.1875        0.119048        0.24452554744525548        0        
C3        C        0.166667        0.130952        0.24452554744525548        0        
C4        C        0.1875        0.095238        0.24452554744525548        0        
C1        C        0.166667        0.154762        0.24452554744525548        0        
C2        C        0.1875        0.190476        0.24452554744525548        0        
C3        C        0.166667        0.202381        0.24452554744525548        0        
C4        C        0.1875        0.166666        0.24452554744525548        0        
C1        C        0.166667        0.226191        0.24452554744525548        0        
C2        C        0.1875        0.261905        0.24452554744525548        0        
C3        C        0.166667        0.273809        0.24452554744525548        0        
C4        C        0.1875        0.238095        0.24452554744525548        0        
C1        C        0.166667        0.297619        0.24452554744525548        0        
C2        C        0.1875        0.333333        0.24452554744525548        0        
C3        C        0.166667        0.345238        0.24452554744525548        0        
C4        C        0.1875        0.309524        0.24452554744525548        0        
C1        C        0.166667        0.369048        0.24452554744525548        0        
C2        C        0.1875        0.404762        0.24452554744525548        0        
C3        C        0.166667        0.416667        0.24452554744525548        0        
C4        C        0.1875        0.380952        0.24452554744525548        0        
C1        C        0.208333        0.011905        0.24452554744525548        0        
C2        C        0.229167        0.047619        0.24452554744525548        0        
C3        C        0.208333        0.059523        0.24452554744525548        0        
C4        C        0.229167        0.023809        0.24452554744525548        0        
C1        C        0.208333        0.083334        0.24452554744525548        0        
C2        C        0.229167        0.119048        0.24452554744525548        0        
C3        C        0.208333        0.130952        0.24452554744525548        0        
C4        C        0.229167        0.095238        0.24452554744525548        0        
C1        C        0.208333        0.154762        0.24452554744525548        0        
C2        C        0.229167        0.190476        0.24452554744525548        0        
C3        C        0.208333        0.202381        0.24452554744525548        0        
C4        C        0.229167        0.166666        0.24452554744525548        0        
C1        C        0.208333        0.226191        0.24452554744525548        0        
C2        C        0.229167        0.261905        0.24452554744525548        0        
C3        C        0.208333        0.273809        0.24452554744525548        0        
C4        C        0.229167        0.238095        0.24452554744525548        0        
C1        C        0.208333        0.297619        0.24452554744525548        0        
C2        C        0.229167        0.333333        0.24452554744525548        0        
C3        C        0.208333        0.345238        0.24452554744525548        0        
C4        C        0.229167        0.309524        0.24452554744525548        0        
C1        C        0.208333        0.369048        0.24452554744525548        0        
C2        C        0.229167        0.404762        0.24452554744525548        0        
C3        C        0.208333        0.416667        0.24452554744525548        0        
C4        C        0.229167        0.380952        0.24452554744525548        0        
C1        C        0.25        0.011905        0.24452554744525548        0        
C2        C        0.270833        0.047619        0.24452554744525548        0        
C3        C        0.25        0.059523        0.24452554744525548        0        
C4        C        0.270833        0.023809        0.24452554744525548        0        
C1        C        0.25        0.083334        0.24452554744525548        0        
C2        C        0.270833        0.119048        0.24452554744525548        0        
C3        C        0.25        0.130952        0.24452554744525548        0        
C4        C        0.270833        0.095238        0.24452554744525548        0        
C1        C        0.25        0.154762        0.24452554744525548        0        
C2        C        0.270833        0.190476        0.24452554744525548        0        
C3        C        0.25        0.202381        0.24452554744525548        0        
C4        C        0.270833        0.166666        0.24452554744525548        0        
C1        C        0.25        0.226191        0.24452554744525548        0        
C2        C        0.270833        0.261905        0.24452554744525548        0        
C3        C        0.25        0.273809        0.24452554744525548        0        
C4        C        0.270833        0.238095        0.24452554744525548        0        
C1        C        0.25        0.297619        0.24452554744525548        0        
C2        C        0.270833        0.333333        0.24452554744525548        0        
C3        C        0.25        0.345238        0.24452554744525548        0        
C4        C        0.270833        0.309524        0.24452554744525548        0        
C1        C        0.25        0.369048        0.24452554744525548        0        
C2        C        0.270833        0.404762        0.24452554744525548        0        
C3        C        0.25        0.416667        0.24452554744525548        0        
C4        C        0.270833        0.380952        0.24452554744525548        0        
C1        C        0.291667        0.011905        0.24452554744525548        0        
C2        C        0.3125        0.047619        0.24452554744525548        0        
C3        C        0.291667        0.059523        0.24452554744525548        0        
C4        C        0.3125        0.023809        0.24452554744525548        0        
C1        C        0.291667        0.083334        0.24452554744525548        0        
C2        C        0.3125        0.119048        0.24452554744525548        0        
C3        C        0.291667        0.130952        0.24452554744525548        0        
C4        C        0.3125        0.095238        0.24452554744525548        0        
C1        C        0.291667        0.154762        0.24452554744525548        0        
C2        C        0.3125        0.190476        0.24452554744525548        0        
C3        C        0.291667        0.202381        0.24452554744525548        0        
C4        C        0.3125        0.166666        0.24452554744525548        0        
C1        C        0.291667        0.226191        0.24452554744525548        0        
C2        C        0.3125        0.261905        0.24452554744525548        0        
C3        C        0.291667        0.273809        0.24452554744525548        0        
C4        C        0.3125        0.238095        0.24452554744525548        0        
C1        C        0.291667        0.297619        0.24452554744525548        0        
C2        C        0.3125        0.333333        0.24452554744525548        0        
C3        C        0.291667        0.345238        0.24452554744525548        0        
C4        C        0.3125        0.309524        0.24452554744525548        0        
C1        C        0.291667        0.369048        0.24452554744525548        0        
C2        C        0.3125        0.404762        0.24452554744525548        0        
C3        C        0.291667        0.416667        0.24452554744525548        0        
C4        C        0.3125        0.380952        0.24452554744525548        0        
C1        C        0.333333        0.011905        0.24452554744525548        0        
C2        C        0.354167        0.047619        0.24452554744525548        0        
C3        C        0.333333        0.059523        0.24452554744525548        0        
C4        C        0.354167        0.023809        0.24452554744525548        0        
C1        C        0.333333        0.083334        0.24452554744525548        0        
C2        C        0.354167        0.119048        0.24452554744525548        0        
C3        C        0.333333        0.130952        0.24452554744525548        0        
C4        C        0.354167        0.095238        0.24452554744525548        0        
C1        C        0.333333        0.154762        0.24452554744525548        0        
C2        C        0.354167        0.190476        0.24452554744525548        0        
C3        C        0.333333        0.202381        0.24452554744525548        0        
C4        C        0.354167        0.166666        0.24452554744525548        0        
C1        C        0.333333        0.226191        0.24452554744525548        0        
C2        C        0.354167        0.261905        0.24452554744525548        0        
C3        C        0.333333        0.273809        0.24452554744525548        0        
C4        C        0.354167        0.238095        0.24452554744525548        0        
C1        C        0.333333        0.297619        0.24452554744525548        0        
C2        C        0.354167        0.333333        0.24452554744525548        0        
C3        C        0.333333        0.345238        0.24452554744525548        0        
C4        C        0.354167        0.309524        0.24452554744525548        0        
C1        C        0.333333        0.369048        0.24452554744525548        0        
C2        C        0.354167        0.404762        0.24452554744525548        0        
C3        C        0.333333        0.416667        0.24452554744525548        0        
C4        C        0.354167        0.380952        0.24452554744525548        0        
C1        C        0.375        0.011905        0.24452554744525548        0        
C2        C        0.395833        0.047619        0.24452554744525548        0        
C3        C        0.375        0.059523        0.24452554744525548        0        
C4        C        0.395833        0.023809        0.24452554744525548        0        
C1        C        0.375        0.083334        0.24452554744525548        0        
C2        C        0.395833        0.119048        0.24452554744525548        0        
C3        C        0.375        0.130952        0.24452554744525548        0        
C4        C        0.395833        0.095238        0.24452554744525548        0        
C1        C        0.375        0.154762        0.24452554744525548        0        
C2        C        0.395833        0.190476        0.24452554744525548        0        
C3        C        0.375        0.202381        0.24452554744525548        0        
C4        C        0.395833        0.166666        0.24452554744525548        0        
C1        C        0.375        0.226191        0.24452554744525548        0        
C2        C        0.395833        0.261905        0.24452554744525548        0        
C3        C        0.375        0.273809        0.24452554744525548        0        
C4        C        0.395833        0.238095        0.24452554744525548        0        
C1        C        0.375        0.297619        0.24452554744525548        0        
C2        C        0.395833        0.333333        0.24452554744525548        0        
C3        C        0.375        0.345238        0.24452554744525548        0        
C4        C        0.395833        0.309524        0.24452554744525548        0        
C1        C        0.375        0.369048        0.24452554744525548        0        
C2        C        0.395833        0.404762        0.24452554744525548        0        
C3        C        0.375        0.416667        0.24452554744525548        0        
C4        C        0.395833        0.380952        0.24452554744525548        0        
C1        C        0.416667        0.011905        0.24452554744525548        0        
C2        C        0.4375        0.047619        0.24452554744525548        0        
C3        C        0.416667        0.059523        0.24452554744525548        0        
C4        C        0.4375        0.023809        0.24452554744525548        0        
C1        C        0.416667        0.083334        0.24452554744525548        0        
C2        C        0.4375        0.119048        0.24452554744525548        0        
C3        C        0.416667        0.130952        0.24452554744525548        0        
C4        C        0.4375        0.095238        0.24452554744525548        0        
C1        C        0.416667        0.154762        0.24452554744525548        0        
C2        C        0.4375        0.190476        0.24452554744525548        0        
C3        C        0.416667        0.202381        0.24452554744525548        0        
C4        C        0.4375        0.166666        0.24452554744525548        0        
C1        C        0.416667        0.226191        0.24452554744525548        0        
C2        C        0.4375        0.261905        0.24452554744525548        0        
C3        C        0.416667        0.273809        0.24452554744525548        0        
C4        C        0.4375        0.238095        0.24452554744525548        0        
C1        C        0.416667        0.297619        0.24452554744525548        0        
C2        C        0.4375        0.333333        0.24452554744525548        0        
C3        C        0.416667        0.345238        0.24452554744525548        0        
C4        C        0.4375        0.309524        0.24452554744525548        0        
C1        C        0.416667        0.369048        0.24452554744525548        0        
C2        C        0.4375        0.404762        0.24452554744525548        0        
C3        C        0.416667        0.416667        0.24452554744525548        0        
C4        C        0.4375        0.380952        0.24452554744525548        0        
C1        C        0.458333        0.011905        0.24452554744525548        0        
C2        C        0.479167        0.047619        0.24452554744525548        0        
C3        C        0.458333        0.059523        0.24452554744525548        0        
C4        C        0.479167        0.023809        0.24452554744525548        0        
C1        C        0.458333        0.083334        0.24452554744525548        0        
C2        C        0.479167        0.119048        0.24452554744525548        0        
C3        C        0.458333        0.130952        0.24452554744525548        0        
C4        C        0.479167        0.095238        0.24452554744525548        0        
C1        C        0.458333        0.154762        0.24452554744525548        0        
C2        C        0.479167        0.190476        0.24452554744525548        0        
C3        C        0.458333        0.202381        0.24452554744525548        0        
C4        C        0.479167        0.166666        0.24452554744525548        0        
C1        C        0.458333        0.226191        0.24452554744525548        0        
C2        C        0.479167        0.261905        0.24452554744525548        0        
C3        C        0.458333        0.273809        0.24452554744525548        0        
C4        C        0.479167        0.238095        0.24452554744525548        0        
C1        C        0.458333        0.297619        0.24452554744525548        0        
C2        C        0.479167        0.333333        0.24452554744525548        0        
C3        C        0.458333        0.345238        0.24452554744525548        0        
C4        C        0.479167        0.309524        0.24452554744525548        0        
C1        C        0.458333        0.369048        0.24452554744525548        0        
C2        C        0.479167        0.404762        0.24452554744525548        0        
C3        C        0.458333        0.416667        0.24452554744525548        0        
C4        C        0.479167        0.380952        0.24452554744525548        0        
C1        C        0.5        0.011905        0.24452554744525548        0        
C2        C        0.520833        0.047619        0.24452554744525548        0        
C3        C        0.5        0.059523        0.24452554744525548        0        
C4        C        0.520833        0.023809        0.24452554744525548        0        
C1        C        0.5        0.083334        0.24452554744525548        0        
C2        C        0.520833        0.119048        0.24452554744525548        0        
C3        C        0.5        0.130952        0.24452554744525548        0        
C4        C        0.520833        0.095238        0.24452554744525548        0        
C1        C        0.5        0.154762        0.24452554744525548        0        
C2        C        0.520833        0.190476        0.24452554744525548        0        
C3        C        0.5        0.202381        0.24452554744525548        0        
C4        C        0.520833        0.166666        0.24452554744525548        0        
C1        C        0.5        0.226191        0.24452554744525548        0        
C2        C        0.520833        0.261905        0.24452554744525548        0        
C3        C        0.5        0.273809        0.24452554744525548        0        
C4        C        0.520833        0.238095        0.24452554744525548        0        
C1        C        0.5        0.297619        0.24452554744525548        0        
C2        C        0.520833        0.333333        0.24452554744525548        0        
C3        C        0.5        0.345238        0.24452554744525548        0        
C4        C        0.520833        0.309524        0.24452554744525548        0        
C1        C        0.5        0.369048        0.24452554744525548        0        
C2        C        0.520833        0.404762        0.24452554744525548        0        
C3        C        0.5        0.416667        0.24452554744525548        0        
C4        C        0.520833        0.380952        0.24452554744525548        0        
C1        C        0.541667        0.011905        0.24452554744525548        0        
C2        C        0.5625        0.047619        0.24452554744525548        0        
C3        C        0.541667        0.059523        0.24452554744525548        0        
C4        C        0.5625        0.023809        0.24452554744525548        0        
C1        C        0.541667        0.083334        0.24452554744525548        0        
C2        C        0.5625        0.119048        0.24452554744525548        0        
C3        C        0.541667        0.130952        0.24452554744525548        0        
C4        C        0.5625        0.095238        0.24452554744525548        0        
C1        C        0.541667        0.154762        0.24452554744525548        0        
C2        C        0.5625        0.190476        0.24452554744525548        0        
C3        C        0.541667        0.202381        0.24452554744525548        0        
C4        C        0.5625        0.166666        0.24452554744525548        0        
C1        C        0.541667        0.226191        0.24452554744525548        0        
C2        C        0.5625        0.261905        0.24452554744525548        0        
C3        C        0.541667        0.273809        0.24452554744525548        0        
C4        C        0.5625        0.238095        0.24452554744525548        0        
C1        C        0.541667        0.297619        0.24452554744525548        0        
C2        C        0.5625        0.333333        0.24452554744525548        0        
C3        C        0.541667        0.345238        0.24452554744525548        0        
C4        C        0.5625        0.309524        0.24452554744525548        0        
C1        C        0.541667        0.369048        0.24452554744525548        0        
C2        C        0.5625        0.404762        0.24452554744525548        0        
C3        C        0.541667        0.416667        0.24452554744525548        0        
C4        C        0.5625        0.380952        0.24452554744525548        0        
C1        C        0.583333        0.011905        0.24452554744525548        0        
C2        C        0.604167        0.047619        0.24452554744525548        0        
C3        C        0.583333        0.059523        0.24452554744525548        0        
C4        C        0.604167        0.023809        0.24452554744525548        0        
C1        C        0.583333        0.083334        0.24452554744525548        0        
C2        C        0.604167        0.119048        0.24452554744525548        0        
C3        C        0.583333        0.130952        0.24452554744525548        0        
C4        C        0.604167        0.095238        0.24452554744525548        0        
C1        C        0.583333        0.154762        0.24452554744525548        0        
C2        C        0.604167        0.190476        0.24452554744525548        0        
C3        C        0.583333        0.202381        0.24452554744525548        0        
C4        C        0.604167        0.166666        0.24452554744525548        0        
C1        C        0.583333        0.226191        0.24452554744525548        0        
C2        C        0.604167        0.261905        0.24452554744525548        0        
C3        C        0.583333        0.273809        0.24452554744525548        0        
C4        C        0.604167        0.238095        0.24452554744525548        0        
C1        C        0.583333        0.297619        0.24452554744525548        0        
C2        C        0.604167        0.333333        0.24452554744525548        0        
C3        C        0.583333        0.345238        0.24452554744525548        0        
C4        C        0.604167        0.309524        0.24452554744525548        0        
C1        C        0.583333        0.369048        0.24452554744525548        0        
C2        C        0.604167        0.404762        0.24452554744525548        0        
C3        C        0.583333        0.416667        0.24452554744525548        0        
C4        C        0.604167        0.380952        0.24452554744525548        0        
C1        C        0.625        0.011905        0.24452554744525548        0        
C2        C        0.645833        0.047619        0.24452554744525548        0        
C3        C        0.625        0.059523        0.24452554744525548        0        
C4        C        0.645833        0.023809        0.24452554744525548        0        
C1        C        0.625        0.083334        0.24452554744525548        0        
C2        C        0.645833        0.119048        0.24452554744525548        0        
C3        C        0.625        0.130952        0.24452554744525548        0        
C4        C        0.645833        0.095238        0.24452554744525548        0        
C1        C        0.625        0.154762        0.24452554744525548        0        
C2        C        0.645833        0.190476        0.24452554744525548        0        
C3        C        0.625        0.202381        0.24452554744525548        0        
C4        C        0.645833        0.166666        0.24452554744525548        0        
C1        C        0.625        0.226191        0.24452554744525548        0        
C2        C        0.645833        0.261905        0.24452554744525548        0        
C3        C        0.625        0.273809        0.24452554744525548        0        
C4        C        0.645833        0.238095        0.24452554744525548        0        
C1        C        0.625        0.297619        0.24452554744525548        0        
C2        C        0.645833        0.333333        0.24452554744525548        0        
C3        C        0.625        0.345238        0.24452554744525548        0        
C4        C        0.645833        0.309524        0.24452554744525548        0        
C1        C        0.625        0.369048        0.24452554744525548        0        
C2        C        0.645833        0.404762        0.24452554744525548        0        
C3        C        0.625        0.416667        0.24452554744525548        0        
C4        C        0.645833        0.380952        0.24452554744525548        0        
C1        C        0.666667        0.011905        0.24452554744525548        0        
C3        C        0.666667        0.059523        0.24452554744525548        0        
C1        C        0.666667        0.083334        0.24452554744525548        0        
C3        C        0.666667        0.130952        0.24452554744525548        0        
C1        C        0.666667        0.154762        0.24452554744525548        0        
C3        C        0.666667        0.202381        0.24452554744525548        0        
C1        C        0.666667        0.226191        0.24452554744525548        0        
C3        C        0.666667        0.273809        0.24452554744525548        0        
C1        C        0.666667        0.297619        0.24452554744525548        0        
C3        C        0.666667        0.345238        0.24452554744525548        0        
C1        C        0.666667        0.369048        0.24452554744525548        0        
C3        C        0.666667        0.416667        0.24452554744525548        0        
C2        C        0.6875        0.047619        0.24452554744525548        0        
C4        C        0.6875        0.023809        0.24452554744525548        0        
C2        C        0.6875        0.119048        0.24452554744525548        0        
C4        C        0.6875        0.095238        0.24452554744525548        0        
C2        C        0.6875        0.190476        0.24452554744525548        0        
C4        C        0.6875        0.166666        0.24452554744525548        0        
C2        C        0.6875        0.261905        0.24452554744525548        0        
C4        C        0.6875        0.238095        0.24452554744525548        0        
C2        C        0.6875        0.333333        0.24452554744525548        0        
C4        C        0.6875        0.309524        0.24452554744525548        0        
C2        C        0.6875        0.404762        0.24452554744525548        0        
C4        C        0.6875        0.380952        0.24452554744525548        0        
C1        C        0.708333        0.011905        0.24452554744525548        0        
C3        C        0.708333        0.059523        0.24452554744525548        0        
C1        C        0.708333        0.083334        0.24452554744525548        0        
C3        C        0.708333        0.130952        0.24452554744525548        0        
C1        C        0.708333        0.154762        0.24452554744525548        0        
C3        C        0.708333        0.202381        0.24452554744525548        0        
C1        C        0.708333        0.226191        0.24452554744525548        0        
C3        C        0.708333        0.273809        0.24452554744525548        0        
C1        C        0.708333        0.297619        0.24452554744525548        0        
C3        C        0.708333        0.345238        0.24452554744525548        0        
C1        C        0.708333        0.369048        0.24452554744525548        0        
C3        C        0.708333        0.416667        0.24452554744525548        0        
C2        C        0.729167        0.047619        0.24452554744525548        0        
C4        C        0.729167        0.023809        0.24452554744525548        0        
C2        C        0.729167        0.119048        0.24452554744525548        0        
C4        C        0.729167        0.095238        0.24452554744525548        0        
C2        C        0.729167        0.190476        0.24452554744525548        0        
C4        C        0.729167        0.166666        0.24452554744525548        0        
C2        C        0.729167        0.261905        0.24452554744525548        0        
C4        C        0.729167        0.238095        0.24452554744525548        0        
C2        C        0.729167        0.333333        0.24452554744525548        0        
C4        C        0.729167        0.309524        0.24452554744525548        0        
C2        C        0.729167        0.404762        0.24452554744525548        0        
C4        C        0.729167        0.380952        0.24452554744525548        0        
C1        C        0.75        0.011905        0.24452554744525548        0        
C3        C        0.75        0.059523        0.24452554744525548        0        
C1        C        0.75        0.083334        0.24452554744525548        0        
C3        C        0.75        0.130952        0.24452554744525548        0        
C1        C        0.75        0.154762        0.24452554744525548        0        
C3        C        0.75        0.202381        0.24452554744525548        0        
C1        C        0.75        0.226191        0.24452554744525548        0        
C3        C        0.75        0.273809        0.24452554744525548        0        
C1        C        0.75        0.297619        0.24452554744525548        0        
C3        C        0.75        0.345238        0.24452554744525548        0        
C1        C        0.75        0.369048        0.24452554744525548        0        
C3        C        0.75        0.416667        0.24452554744525548        0        
C2        C        0.770833        0.047619        0.24452554744525548        0        
C4        C        0.770833        0.023809        0.24452554744525548        0        
C2        C        0.770833        0.119048        0.24452554744525548        0        
C4        C        0.770833        0.095238        0.24452554744525548        0        
C2        C        0.770833        0.190476        0.24452554744525548        0        
C4        C        0.770833        0.166666        0.24452554744525548        0        
C2        C        0.770833        0.261905        0.24452554744525548        0        
C4        C        0.770833        0.238095        0.24452554744525548        0        
C2        C        0.770833        0.333333        0.24452554744525548        0        
C4        C        0.770833        0.309524        0.24452554744525548        0        
C2        C        0.770833        0.404762        0.24452554744525548        0        
C4        C        0.770833        0.380952        0.24452554744525548        0        
C1        C        0.791667        0.011905        0.24452554744525548        0        
C3        C        0.791667        0.059523        0.24452554744525548        0        
C1        C        0.791667        0.083334        0.24452554744525548        0        
C3        C        0.791667        0.130952        0.24452554744525548        0        
C1        C        0.791667        0.154762        0.24452554744525548        0        
C3        C        0.791667        0.202381        0.24452554744525548        0        
C1        C        0.791667        0.226191        0.24452554744525548        0        
C3        C        0.791667        0.273809        0.24452554744525548        0        
C1        C        0.791667        0.297619        0.24452554744525548        0        
C3        C        0.791667        0.345238        0.24452554744525548        0        
C1        C        0.791667        0.369048        0.24452554744525548        0        
C3        C        0.791667        0.416667        0.24452554744525548        0        
C2        C        0.8125        0.047619        0.24452554744525548        0        
C4        C        0.8125        0.023809        0.24452554744525548        0        
C2        C        0.8125        0.119048        0.24452554744525548        0        
C4        C        0.8125        0.095238        0.24452554744525548        0        
C2        C        0.8125        0.190476        0.24452554744525548        0        
C4        C        0.8125        0.166666        0.24452554744525548        0        
C2        C        0.8125        0.261905        0.24452554744525548        0        
C4        C        0.8125        0.238095        0.24452554744525548        0        
C2        C        0.8125        0.333333        0.24452554744525548        0        
C4        C        0.8125        0.309524        0.24452554744525548        0        
C2        C        0.8125        0.404762        0.24452554744525548        0        
C4        C        0.8125        0.380952        0.24452554744525548        0        
C1        C        0.833333        0.011905        0.24452554744525548        0        
C3        C        0.833333        0.059523        0.24452554744525548        0        
C1        C        0.833333        0.083334        0.24452554744525548        0        
C3        C        0.833333        0.130952        0.24452554744525548        0        
C1        C        0.833333        0.154762        0.24452554744525548        0        
C3        C        0.833333        0.202381        0.24452554744525548        0        
C1        C        0.833333        0.226191        0.24452554744525548        0        
C3        C        0.833333        0.273809        0.24452554744525548        0        
C1        C        0.833333        0.297619        0.24452554744525548        0        
C3        C        0.833333        0.345238        0.24452554744525548        0        
C1        C        0.833333        0.369048        0.24452554744525548        0        
C3        C        0.833333        0.416667        0.24452554744525548        0        
C2        C        0.854167        0.047619        0.24452554744525548        0        
C4        C        0.854167        0.023809        0.24452554744525548        0        
C2        C        0.854167        0.119048        0.24452554744525548        0        
C4        C        0.854167        0.095238        0.24452554744525548        0        
C2        C        0.854167        0.190476        0.24452554744525548        0        
C4        C        0.854167        0.166666        0.24452554744525548        0        
C2        C        0.854167        0.261905        0.24452554744525548        0        
C4        C        0.854167        0.238095        0.24452554744525548        0        
C2        C        0.854167        0.333333        0.24452554744525548        0        
C4        C        0.854167        0.309524        0.24452554744525548        0        
C2        C        0.854167        0.404762        0.24452554744525548        0        
C4        C        0.854167        0.380952        0.24452554744525548        0        
C1        C        0.875        0.011905        0.24452554744525548        0        
C3        C        0.875        0.059523        0.24452554744525548        0        
C1        C        0.875        0.083334        0.24452554744525548        0        
C3        C        0.875        0.130952        0.24452554744525548        0        
C1        C        0.875        0.154762        0.24452554744525548        0        
C3        C        0.875        0.202381        0.24452554744525548        0        
C1        C        0.875        0.226191        0.24452554744525548        0        
C3        C        0.875        0.273809        0.24452554744525548        0        
C1        C        0.875        0.297619        0.24452554744525548        0        
C3        C        0.875        0.345238        0.24452554744525548        0        
C1        C        0.875        0.369048        0.24452554744525548        0        
C3        C        0.875        0.416667        0.24452554744525548        0        
C2        C        0.895833        0.047619        0.24452554744525548        0        
C4        C        0.895833        0.023809        0.24452554744525548        0        
C2        C        0.895833        0.119048        0.24452554744525548        0        
C4        C        0.895833        0.095238        0.24452554744525548        0        
C2        C        0.895833        0.190476        0.24452554744525548        0        
C4        C        0.895833        0.166666        0.24452554744525548        0        
C2        C        0.895833        0.261905        0.24452554744525548        0        
C4        C        0.895833        0.238095        0.24452554744525548        0        
C2        C        0.895833        0.333333        0.24452554744525548        0        
C4        C        0.895833        0.309524        0.24452554744525548        0        
C2        C        0.895833        0.404762        0.24452554744525548        0        
C4        C        0.895833        0.380952        0.24452554744525548        0        
C1        C        0.916667        0.011905        0.24452554744525548        0        
C3        C        0.916667        0.059523        0.24452554744525548        0        
C1        C        0.916667        0.083334        0.24452554744525548        0        
C3        C        0.916667        0.130952        0.24452554744525548        0        
C1        C        0.916667        0.154762        0.24452554744525548        0        
C3        C        0.916667        0.202381        0.24452554744525548        0        
C1        C        0.916667        0.226191        0.24452554744525548        0        
C3        C        0.916667        0.273809        0.24452554744525548        0        
C1        C        0.916667        0.297619        0.24452554744525548        0        
C3        C        0.916667        0.345238        0.24452554744525548        0        
C1        C        0.916667        0.369048        0.24452554744525548        0        
C3        C        0.916667        0.416667        0.24452554744525548        0        
C2        C        0.9375        0.047619        0.24452554744525548        0        
C4        C        0.9375        0.023809        0.24452554744525548        0        
C2        C        0.9375        0.119048        0.24452554744525548        0        
C4        C        0.9375        0.095238        0.24452554744525548        0        
C2        C        0.9375        0.190476        0.24452554744525548        0        
C4        C        0.9375        0.166666        0.24452554744525548        0        
C2        C        0.9375        0.261905        0.24452554744525548        0        
C4        C        0.9375        0.238095        0.24452554744525548        0        
C2        C        0.9375        0.333333        0.24452554744525548        0        
C4        C        0.9375        0.309524        0.24452554744525548        0        
C2        C        0.9375        0.404762        0.24452554744525548        0        
C4        C        0.9375        0.380952        0.24452554744525548        0        
C1        C        0.958333        0.011905        0.24452554744525548        0        
C3        C        0.958333        0.059523        0.24452554744525548        0        
C1        C        0.958333        0.083334        0.24452554744525548        0        
C3        C        0.958333        0.130952        0.24452554744525548        0        
C1        C        0.958333        0.154762        0.24452554744525548        0        
C3        C        0.958333        0.202381        0.24452554744525548        0        
C1        C        0.958333        0.226191        0.24452554744525548        0        
C3        C        0.958333        0.273809        0.24452554744525548        0        
C1        C        0.958333        0.297619        0.24452554744525548        0        
C3        C        0.958333        0.345238        0.24452554744525548        0        
C1        C        0.958333        0.369048        0.24452554744525548        0        
C3        C        0.958333        0.416667        0.24452554744525548        0        
C2        C        0.979167        0.047619        0.24452554744525548        0        
C4        C        0.979167        0.023809        0.24452554744525548        0        
C2        C        0.979167        0.119048        0.24452554744525548        0        
C4        C        0.979167        0.095238        0.24452554744525548        0        
C2        C        0.979167        0.190476        0.24452554744525548        0        
C4        C        0.979167        0.166666        0.24452554744525548        0        
C2        C        0.979167        0.261905        0.24452554744525548        0        
C4        C        0.979167        0.238095        0.24452554744525548        0        
C2        C        0.979167        0.333333        0.24452554744525548        0        
C4        C        0.979167        0.309524        0.24452554744525548        0        
C2        C        0.979167        0.404762        0.24452554744525548        0        
C4        C        0.979167        0.380952        0.24452554744525548        0        
C1        C        0.0        0.440477        0.24452554744525548        0        
C1        C        0.041667        0.440477        0.24452554744525548        0        
C1        C        0.083333        0.440477        0.24452554744525548        0        
C1        C        0.125        0.440477        0.24452554744525548        0        
C1        C        0.166667        0.440477        0.24452554744525548        0        
C1        C        0.208333        0.440477        0.24452554744525548        0        
C1        C        0.25        0.440477        0.24452554744525548        0        
C1        C        0.291667        0.440477        0.24452554744525548        0        
C1        C        0.333333        0.440477        0.24452554744525548        0        
C1        C        0.375        0.440477        0.24452554744525548        0        
C1        C        0.416667        0.440477        0.24452554744525548        0        
C1        C        0.458333        0.440477        0.24452554744525548        0        
C1        C        0.5        0.440477        0.24452554744525548        0        
C1        C        0.541667        0.440477        0.24452554744525548        0        
C1        C        0.583333        0.440477        0.24452554744525548        0        
C1        C        0.625        0.440477        0.24452554744525548        0        
C1        C        0.666667        0.440477        0.24452554744525548        0        
C1        C        0.708333        0.440477        0.24452554744525548        0        
C1        C        0.75        0.440477        0.24452554744525548        0        
C1        C        0.791667        0.440477        0.24452554744525548        0        
C1        C        0.833333        0.440477        0.24452554744525548        0        
C1        C        0.875        0.440477        0.24452554744525548        0        
C1        C        0.916667        0.440477        0.24452554744525548        0        
C1        C        0.958333        0.440477        0.24452554744525548        0        
C2        C        0.020833        0.476191        0.24452554744525548        0        
C2        C        0.0625        0.476191        0.24452554744525548        0        
C2        C        0.104167        0.476191        0.24452554744525548        0        
C2        C        0.145833        0.476191        0.24452554744525548        0        
C2        C        0.1875        0.476191        0.24452554744525548        0        
C2        C        0.229167        0.476191        0.24452554744525548        0        
C2        C        0.270833        0.476191        0.24452554744525548        0        
C2        C        0.3125        0.476191        0.24452554744525548        0        
C2        C        0.354167        0.476191        0.24452554744525548        0        
C2        C        0.395833        0.476191        0.24452554744525548        0        
C2        C        0.4375        0.476191        0.24452554744525548        0        
C2        C        0.479167        0.476191        0.24452554744525548        0        
C2        C        0.520833        0.476191        0.24452554744525548        0        
C2        C        0.5625        0.476191        0.24452554744525548        0        
C2        C        0.604167        0.476191        0.24452554744525548        0        
C2        C        0.645833        0.476191        0.24452554744525548        0        
C2        C        0.6875        0.476191        0.24452554744525548        0        
C2        C        0.729167        0.476191        0.24452554744525548        0        
C2        C        0.770833        0.476191        0.24452554744525548        0        
C2        C        0.8125        0.476191        0.24452554744525548        0        
C2        C        0.854167        0.476191        0.24452554744525548        0        
C2        C        0.895833        0.476191        0.24452554744525548        0        
C2        C        0.9375        0.476191        0.24452554744525548        0        
C2        C        0.979167        0.476191        0.24452554744525548        0        
C3        C        0.0        0.488095        0.24452554744525548        0        
C3        C        0.041667        0.488095        0.24452554744525548        0        
C3        C        0.083333        0.488095        0.24452554744525548        0        
C3        C        0.125        0.488095        0.24452554744525548        0        
C3        C        0.166667        0.488095        0.24452554744525548        0        
C3        C        0.208333        0.488095        0.24452554744525548        0        
C3        C        0.25        0.488095        0.24452554744525548        0        
C3        C        0.291667        0.488095        0.24452554744525548        0        
C3        C        0.333333        0.488095        0.24452554744525548        0        
C3        C        0.375        0.488095        0.24452554744525548        0        
C3        C        0.416667        0.488095        0.24452554744525548        0        
C3        C        0.458333        0.488095        0.24452554744525548        0        
C3        C        0.5        0.488095        0.24452554744525548        0        
C3        C        0.541667        0.488095        0.24452554744525548        0        
C3        C        0.583333        0.488095        0.24452554744525548        0        
C3        C        0.625        0.488095        0.24452554744525548        0        
C3        C        0.666667        0.488095        0.24452554744525548        0        
C3        C        0.708333        0.488095        0.24452554744525548        0        
C3        C        0.75        0.488095        0.24452554744525548        0        
C3        C        0.791667        0.488095        0.24452554744525548        0        
C3        C        0.833333        0.488095        0.24452554744525548        0        
C3        C        0.875        0.488095        0.24452554744525548        0        
C3        C        0.916667        0.488095        0.24452554744525548        0        
C3        C        0.958333        0.488095        0.24452554744525548        0        
C4        C        0.020833        0.452381        0.24452554744525548        0        
C4        C        0.0625        0.452381        0.24452554744525548        0        
C4        C        0.104167        0.452381        0.24452554744525548        0        
C4        C        0.145833        0.452381        0.24452554744525548        0        
C4        C        0.1875        0.452381        0.24452554744525548        0        
C4        C        0.229167        0.452381        0.24452554744525548        0        
C4        C        0.270833        0.452381        0.24452554744525548        0        
C4        C        0.3125        0.452381        0.24452554744525548        0        
C4        C        0.354167        0.452381        0.24452554744525548        0        
C4        C        0.395833        0.452381        0.24452554744525548        0        
C4        C        0.4375        0.452381        0.24452554744525548        0        
C4        C        0.479167        0.452381        0.24452554744525548        0        
C4        C        0.520833        0.452381        0.24452554744525548        0        
C4        C        0.5625        0.452381        0.24452554744525548        0        
C4        C        0.604167        0.452381        0.24452554744525548        0        
C4        C        0.645833        0.452381        0.24452554744525548        0        
C4        C        0.6875        0.452381        0.24452554744525548        0        
C4        C        0.729167        0.452381        0.24452554744525548        0        
C4        C        0.770833        0.452381        0.24452554744525548        0        
C4        C        0.8125        0.452381        0.24452554744525548        0        
C4        C        0.854167        0.452381        0.24452554744525548        0        
C4        C        0.895833        0.452381        0.24452554744525548        0        
C4        C        0.9375        0.452381        0.24452554744525548        0        
C4        C        0.979167        0.452381        0.24452554744525548        0        
C1        C        0.0        0.511905        0.24452554744525548        0        
C1        C        0.041667        0.511905        0.24452554744525548        0        
C1        C        0.083333        0.511905        0.24452554744525548        0        
C1        C        0.125        0.511905        0.24452554744525548        0        
C1        C        0.166667        0.511905        0.24452554744525548        0        
C1        C        0.208333        0.511905        0.24452554744525548        0        
C1        C        0.25        0.511905        0.24452554744525548        0        
C1        C        0.291667        0.511905        0.24452554744525548        0        
C1        C        0.333333        0.511905        0.24452554744525548        0        
C1        C        0.375        0.511905        0.24452554744525548        0        
C1        C        0.416667        0.511905        0.24452554744525548        0        
C1        C        0.458333        0.511905        0.24452554744525548        0        
C1        C        0.5        0.511905        0.24452554744525548        0        
C1        C        0.541667        0.511905        0.24452554744525548        0        
C1        C        0.583333        0.511905        0.24452554744525548        0        
C1        C        0.625        0.511905        0.24452554744525548        0        
C1        C        0.666667        0.511905        0.24452554744525548        0        
C1        C        0.708333        0.511905        0.24452554744525548        0        
C1        C        0.75        0.511905        0.24452554744525548        0        
C1        C        0.791667        0.511905        0.24452554744525548        0        
C1        C        0.833333        0.511905        0.24452554744525548        0        
C1        C        0.875        0.511905        0.24452554744525548        0        
C1        C        0.916667        0.511905        0.24452554744525548        0        
C1        C        0.958333        0.511905        0.24452554744525548        0        
C2        C        0.020833        0.547619        0.24452554744525548        0        
C2        C        0.0625        0.547619        0.24452554744525548        0        
C2        C        0.104167        0.547619        0.24452554744525548        0        
C2        C        0.145833        0.547619        0.24452554744525548        0        
C2        C        0.1875        0.547619        0.24452554744525548        0        
C2        C        0.229167        0.547619        0.24452554744525548        0        
C2        C        0.270833        0.547619        0.24452554744525548        0        
C2        C        0.3125        0.547619        0.24452554744525548        0        
C2        C        0.354167        0.547619        0.24452554744525548        0        
C2        C        0.395833        0.547619        0.24452554744525548        0        
C2        C        0.4375        0.547619        0.24452554744525548        0        
C2        C        0.479167        0.547619        0.24452554744525548        0        
C2        C        0.520833        0.547619        0.24452554744525548        0        
C2        C        0.5625        0.547619        0.24452554744525548        0        
C2        C        0.604167        0.547619        0.24452554744525548        0        
C2        C        0.645833        0.547619        0.24452554744525548        0        
C2        C        0.6875        0.547619        0.24452554744525548        0        
C2        C        0.729167        0.547619        0.24452554744525548        0        
C2        C        0.770833        0.547619        0.24452554744525548        0        
C2        C        0.8125        0.547619        0.24452554744525548        0        
C2        C        0.854167        0.547619        0.24452554744525548        0        
C2        C        0.895833        0.547619        0.24452554744525548        0        
C2        C        0.9375        0.547619        0.24452554744525548        0        
C2        C        0.979167        0.547619        0.24452554744525548        0        
C3        C        0.0        0.559524        0.24452554744525548        0        
C3        C        0.041667        0.559524        0.24452554744525548        0        
C3        C        0.083333        0.559524        0.24452554744525548        0        
C3        C        0.125        0.559524        0.24452554744525548        0        
C3        C        0.166667        0.559524        0.24452554744525548        0        
C3        C        0.208333        0.559524        0.24452554744525548        0        
C3        C        0.25        0.559524        0.24452554744525548        0        
C3        C        0.291667        0.559524        0.24452554744525548        0        
C3        C        0.333333        0.559524        0.24452554744525548        0        
C3        C        0.375        0.559524        0.24452554744525548        0        
C3        C        0.416667        0.559524        0.24452554744525548        0        
C3        C        0.458333        0.559524        0.24452554744525548        0        
C3        C        0.5        0.559524        0.24452554744525548        0        
C3        C        0.541667        0.559524        0.24452554744525548        0        
C3        C        0.583333        0.559524        0.24452554744525548        0        
C3        C        0.625        0.559524        0.24452554744525548        0        
C3        C        0.666667        0.559524        0.24452554744525548        0        
C3        C        0.708333        0.559524        0.24452554744525548        0        
C3        C        0.75        0.559524        0.24452554744525548        0        
C3        C        0.791667        0.559524        0.24452554744525548        0        
C3        C        0.833333        0.559524        0.24452554744525548        0        
C3        C        0.875        0.559524        0.24452554744525548        0        
C3        C        0.916667        0.559524        0.24452554744525548        0        
C3        C        0.958333        0.559524        0.24452554744525548        0        
C4        C        0.020833        0.523809        0.24452554744525548        0        
C4        C        0.0625        0.523809        0.24452554744525548        0        
C4        C        0.104167        0.523809        0.24452554744525548        0        
C4        C        0.145833        0.523809        0.24452554744525548        0        
C4        C        0.1875        0.523809        0.24452554744525548        0        
C4        C        0.229167        0.523809        0.24452554744525548        0        
C4        C        0.270833        0.523809        0.24452554744525548        0        
C4        C        0.3125        0.523809        0.24452554744525548        0        
C4        C        0.354167        0.523809        0.24452554744525548        0        
C4        C        0.395833        0.523809        0.24452554744525548        0        
C4        C        0.4375        0.523809        0.24452554744525548        0        
C4        C        0.479167        0.523809        0.24452554744525548        0        
C4        C        0.520833        0.523809        0.24452554744525548        0        
C4        C        0.5625        0.523809        0.24452554744525548        0        
C4        C        0.604167        0.523809        0.24452554744525548        0        
C4        C        0.645833        0.523809        0.24452554744525548        0        
C4        C        0.6875        0.523809        0.24452554744525548        0        
C4        C        0.729167        0.523809        0.24452554744525548        0        
C4        C        0.770833        0.523809        0.24452554744525548        0        
C4        C        0.8125        0.523809        0.24452554744525548        0        
C4        C        0.854167        0.523809        0.24452554744525548        0        
C4        C        0.895833        0.523809        0.24452554744525548        0        
C4        C        0.9375        0.523809        0.24452554744525548        0        
C4        C        0.979167        0.523809        0.24452554744525548        0        
C1        C        0.0        0.583334        0.24452554744525548        0        
C1        C        0.041667        0.583334        0.24452554744525548        0        
C1        C        0.083333        0.583334        0.24452554744525548        0        
C1        C        0.125        0.583334        0.24452554744525548        0        
C1        C        0.166667        0.583334        0.24452554744525548        0        
C1        C        0.208333        0.583334        0.24452554744525548        0        
C1        C        0.25        0.583334        0.24452554744525548        0        
C1        C        0.291667        0.583334        0.24452554744525548        0        
C1        C        0.333333        0.583334        0.24452554744525548        0        
C1        C        0.375        0.583334        0.24452554744525548        0        
C1        C        0.416667        0.583334        0.24452554744525548        0        
C1        C        0.458333        0.583334        0.24452554744525548        0        
C1        C        0.5        0.583334        0.24452554744525548        0        
C1        C        0.541667        0.583334        0.24452554744525548        0        
C1        C        0.583333        0.583334        0.24452554744525548        0        
C1        C        0.625        0.583334        0.24452554744525548        0        
C1        C        0.666667        0.583334        0.24452554744525548        0        
C1        C        0.708333        0.583334        0.24452554744525548        0        
C1        C        0.75        0.583334        0.24452554744525548        0        
C1        C        0.791667        0.583334        0.24452554744525548        0        
C1        C        0.833333        0.583334        0.24452554744525548        0        
C1        C        0.875        0.583334        0.24452554744525548        0        
C1        C        0.916667        0.583334        0.24452554744525548        0        
C1        C        0.958333        0.583334        0.24452554744525548        0        
C2        C        0.020833        0.619048        0.24452554744525548        0        
C2        C        0.0625        0.619048        0.24452554744525548        0        
C2        C        0.104167        0.619048        0.24452554744525548        0        
C2        C        0.145833        0.619048        0.24452554744525548        0        
C2        C        0.1875        0.619048        0.24452554744525548        0        
C2        C        0.229167        0.619048        0.24452554744525548        0        
C2        C        0.270833        0.619048        0.24452554744525548        0        
C2        C        0.3125        0.619048        0.24452554744525548        0        
C2        C        0.354167        0.619048        0.24452554744525548        0        
C2        C        0.395833        0.619048        0.24452554744525548        0        
C2        C        0.4375        0.619048        0.24452554744525548        0        
C2        C        0.479167        0.619048        0.24452554744525548        0        
C2        C        0.520833        0.619048        0.24452554744525548        0        
C2        C        0.5625        0.619048        0.24452554744525548        0        
C2        C        0.604167        0.619048        0.24452554744525548        0        
C2        C        0.645833        0.619048        0.24452554744525548        0        
C2        C        0.6875        0.619048        0.24452554744525548        0        
C2        C        0.729167        0.619048        0.24452554744525548        0        
C2        C        0.770833        0.619048        0.24452554744525548        0        
C2        C        0.8125        0.619048        0.24452554744525548        0        
C2        C        0.854167        0.619048        0.24452554744525548        0        
C2        C        0.895833        0.619048        0.24452554744525548        0        
C2        C        0.9375        0.619048        0.24452554744525548        0        
C2        C        0.979167        0.619048        0.24452554744525548        0        
C3        C        0.0        0.630952        0.24452554744525548        0        
C3        C        0.041667        0.630952        0.24452554744525548        0        
C3        C        0.083333        0.630952        0.24452554744525548        0        
C3        C        0.125        0.630952        0.24452554744525548        0        
C3        C        0.166667        0.630952        0.24452554744525548        0        
C3        C        0.208333        0.630952        0.24452554744525548        0        
C3        C        0.25        0.630952        0.24452554744525548        0        
C3        C        0.291667        0.630952        0.24452554744525548        0        
C3        C        0.333333        0.630952        0.24452554744525548        0        
C3        C        0.375        0.630952        0.24452554744525548        0        
C3        C        0.416667        0.630952        0.24452554744525548        0        
C3        C        0.458333        0.630952        0.24452554744525548        0        
C3        C        0.5        0.630952        0.24452554744525548        0        
C3        C        0.541667        0.630952        0.24452554744525548        0        
C3        C        0.583333        0.630952        0.24452554744525548        0        
C3        C        0.625        0.630952        0.24452554744525548        0        
C3        C        0.666667        0.630952        0.24452554744525548        0        
C3        C        0.708333        0.630952        0.24452554744525548        0        
C3        C        0.75        0.630952        0.24452554744525548        0        
C3        C        0.791667        0.630952        0.24452554744525548        0        
C3        C        0.833333        0.630952        0.24452554744525548        0        
C3        C        0.875        0.630952        0.24452554744525548        0        
C3        C        0.916667        0.630952        0.24452554744525548        0        
C3        C        0.958333        0.630952        0.24452554744525548        0        
C4        C        0.020833        0.595238        0.24452554744525548        0        
C4        C        0.0625        0.595238        0.24452554744525548        0        
C4        C        0.104167        0.595238        0.24452554744525548        0        
C4        C        0.145833        0.595238        0.24452554744525548        0        
C4        C        0.1875        0.595238        0.24452554744525548        0        
C4        C        0.229167        0.595238        0.24452554744525548        0        
C4        C        0.270833        0.595238        0.24452554744525548        0        
C4        C        0.3125        0.595238        0.24452554744525548        0        
C4        C        0.354167        0.595238        0.24452554744525548        0        
C4        C        0.395833        0.595238        0.24452554744525548        0        
C4        C        0.4375        0.595238        0.24452554744525548        0        
C4        C        0.479167        0.595238        0.24452554744525548        0        
C4        C        0.520833        0.595238        0.24452554744525548        0        
C4        C        0.5625        0.595238        0.24452554744525548        0        
C4        C        0.604167        0.595238        0.24452554744525548        0        
C4        C        0.645833        0.595238        0.24452554744525548        0        
C4        C        0.6875        0.595238        0.24452554744525548        0        
C4        C        0.729167        0.595238        0.24452554744525548        0        
C4        C        0.770833        0.595238        0.24452554744525548        0        
C4        C        0.8125        0.595238        0.24452554744525548        0        
C4        C        0.854167        0.595238        0.24452554744525548        0        
C4        C        0.895833        0.595238        0.24452554744525548        0        
C4        C        0.9375        0.595238        0.24452554744525548        0        
C4        C        0.979167        0.595238        0.24452554744525548        0        
C1        C        0.0        0.654762        0.24452554744525548        0        
C1        C        0.041667        0.654762        0.24452554744525548        0        
C1        C        0.083333        0.654762        0.24452554744525548        0        
C1        C        0.125        0.654762        0.24452554744525548        0        
C1        C        0.166667        0.654762        0.24452554744525548        0        
C1        C        0.208333        0.654762        0.24452554744525548        0        
C1        C        0.25        0.654762        0.24452554744525548        0        
C1        C        0.291667        0.654762        0.24452554744525548        0        
C1        C        0.333333        0.654762        0.24452554744525548        0        
C1        C        0.375        0.654762        0.24452554744525548        0        
C1        C        0.416667        0.654762        0.24452554744525548        0        
C1        C        0.458333        0.654762        0.24452554744525548        0        
C1        C        0.5        0.654762        0.24452554744525548        0        
C1        C        0.541667        0.654762        0.24452554744525548        0        
C1        C        0.583333        0.654762        0.24452554744525548        0        
C1        C        0.625        0.654762        0.24452554744525548        0        
C1        C        0.666667        0.654762        0.24452554744525548        0        
C1        C        0.708333        0.654762        0.24452554744525548        0        
C1        C        0.75        0.654762        0.24452554744525548        0        
C1        C        0.791667        0.654762        0.24452554744525548        0        
C1        C        0.833333        0.654762        0.24452554744525548        0        
C1        C        0.875        0.654762        0.24452554744525548        0        
C1        C        0.916667        0.654762        0.24452554744525548        0        
C1        C        0.958333        0.654762        0.24452554744525548        0        
C2        C        0.020833        0.690476        0.24452554744525548        0        
C2        C        0.0625        0.690476        0.24452554744525548        0        
C2        C        0.104167        0.690476        0.24452554744525548        0        
C2        C        0.145833        0.690476        0.24452554744525548        0        
C2        C        0.1875        0.690476        0.24452554744525548        0        
C2        C        0.229167        0.690476        0.24452554744525548        0        
C2        C        0.270833        0.690476        0.24452554744525548        0        
C2        C        0.3125        0.690476        0.24452554744525548        0        
C2        C        0.354167        0.690476        0.24452554744525548        0        
C2        C        0.395833        0.690476        0.24452554744525548        0        
C2        C        0.4375        0.690476        0.24452554744525548        0        
C2        C        0.479167        0.690476        0.24452554744525548        0        
C2        C        0.520833        0.690476        0.24452554744525548        0        
C2        C        0.5625        0.690476        0.24452554744525548        0        
C2        C        0.604167        0.690476        0.24452554744525548        0        
C2        C        0.645833        0.690476        0.24452554744525548        0        
C2        C        0.6875        0.690476        0.24452554744525548        0        
C2        C        0.729167        0.690476        0.24452554744525548        0        
C2        C        0.770833        0.690476        0.24452554744525548        0        
C2        C        0.8125        0.690476        0.24452554744525548        0        
C2        C        0.854167        0.690476        0.24452554744525548        0        
C2        C        0.895833        0.690476        0.24452554744525548        0        
C2        C        0.9375        0.690476        0.24452554744525548        0        
C2        C        0.979167        0.690476        0.24452554744525548        0        
C3        C        0.0        0.702381        0.24452554744525548        0        
C3        C        0.041667        0.702381        0.24452554744525548        0        
C3        C        0.083333        0.702381        0.24452554744525548        0        
C3        C        0.125        0.702381        0.24452554744525548        0        
C3        C        0.166667        0.702381        0.24452554744525548        0        
C3        C        0.208333        0.702381        0.24452554744525548        0        
C3        C        0.25        0.702381        0.24452554744525548        0        
C3        C        0.291667        0.702381        0.24452554744525548        0        
C3        C        0.333333        0.702381        0.24452554744525548        0        
C3        C        0.375        0.702381        0.24452554744525548        0        
C3        C        0.416667        0.702381        0.24452554744525548        0        
C3        C        0.458333        0.702381        0.24452554744525548        0        
C3        C        0.5        0.702381        0.24452554744525548        0        
C3        C        0.541667        0.702381        0.24452554744525548        0        
C3        C        0.583333        0.702381        0.24452554744525548        0        
C3        C        0.625        0.702381        0.24452554744525548        0        
C3        C        0.666667        0.702381        0.24452554744525548        0        
C3        C        0.708333        0.702381        0.24452554744525548        0        
C3        C        0.75        0.702381        0.24452554744525548        0        
C3        C        0.791667        0.702381        0.24452554744525548        0        
C3        C        0.833333        0.702381        0.24452554744525548        0        
C3        C        0.875        0.702381        0.24452554744525548        0        
C3        C        0.916667        0.702381        0.24452554744525548        0        
C3        C        0.958333        0.702381        0.24452554744525548        0        
C4        C        0.020833        0.666666        0.24452554744525548        0        
C4        C        0.0625        0.666666        0.24452554744525548        0        
C4        C        0.104167        0.666666        0.24452554744525548        0        
C4        C        0.145833        0.666666        0.24452554744525548        0        
C4        C        0.1875        0.666666        0.24452554744525548        0        
C4        C        0.229167        0.666666        0.24452554744525548        0        
C4        C        0.270833        0.666666        0.24452554744525548        0        
C4        C        0.3125        0.666666        0.24452554744525548        0        
C4        C        0.354167        0.666666        0.24452554744525548        0        
C4        C        0.395833        0.666666        0.24452554744525548        0        
C4        C        0.4375        0.666666        0.24452554744525548        0        
C4        C        0.479167        0.666666        0.24452554744525548        0        
C4        C        0.520833        0.666666        0.24452554744525548        0        
C4        C        0.5625        0.666666        0.24452554744525548        0        
C4        C        0.604167        0.666666        0.24452554744525548        0        
C4        C        0.645833        0.666666        0.24452554744525548        0        
C4        C        0.6875        0.666666        0.24452554744525548        0        
C4        C        0.729167        0.666666        0.24452554744525548        0        
C4        C        0.770833        0.666666        0.24452554744525548        0        
C4        C        0.8125        0.666666        0.24452554744525548        0        
C4        C        0.854167        0.666666        0.24452554744525548        0        
C4        C        0.895833        0.666666        0.24452554744525548        0        
C4        C        0.9375        0.666666        0.24452554744525548        0        
C4        C        0.979167        0.666666        0.24452554744525548        0        
C1        C        0.0        0.726191        0.24452554744525548        0        
C1        C        0.041667        0.726191        0.24452554744525548        0        
C1        C        0.083333        0.726191        0.24452554744525548        0        
C1        C        0.125        0.726191        0.24452554744525548        0        
C1        C        0.166667        0.726191        0.24452554744525548        0        
C1        C        0.208333        0.726191        0.24452554744525548        0        
C1        C        0.25        0.726191        0.24452554744525548        0        
C1        C        0.291667        0.726191        0.24452554744525548        0        
C1        C        0.333333        0.726191        0.24452554744525548        0        
C1        C        0.375        0.726191        0.24452554744525548        0        
C1        C        0.416667        0.726191        0.24452554744525548        0        
C1        C        0.458333        0.726191        0.24452554744525548        0        
C1        C        0.5        0.726191        0.24452554744525548        0        
C1        C        0.541667        0.726191        0.24452554744525548        0        
C1        C        0.583333        0.726191        0.24452554744525548        0        
C1        C        0.625        0.726191        0.24452554744525548        0        
C1        C        0.666667        0.726191        0.24452554744525548        0        
C1        C        0.708333        0.726191        0.24452554744525548        0        
C1        C        0.75        0.726191        0.24452554744525548        0        
C1        C        0.791667        0.726191        0.24452554744525548        0        
C1        C        0.833333        0.726191        0.24452554744525548        0        
C1        C        0.875        0.726191        0.24452554744525548        0        
C1        C        0.916667        0.726191        0.24452554744525548        0        
C1        C        0.958333        0.726191        0.24452554744525548        0        
C2        C        0.020833        0.761905        0.24452554744525548        0        
C2        C        0.0625        0.761905        0.24452554744525548        0        
C2        C        0.104167        0.761905        0.24452554744525548        0        
C2        C        0.145833        0.761905        0.24452554744525548        0        
C2        C        0.1875        0.761905        0.24452554744525548        0        
C2        C        0.229167        0.761905        0.24452554744525548        0        
C2        C        0.270833        0.761905        0.24452554744525548        0        
C2        C        0.3125        0.761905        0.24452554744525548        0        
C2        C        0.354167        0.761905        0.24452554744525548        0        
C2        C        0.395833        0.761905        0.24452554744525548        0        
C2        C        0.4375        0.761905        0.24452554744525548        0        
C2        C        0.479167        0.761905        0.24452554744525548        0        
C2        C        0.520833        0.761905        0.24452554744525548        0        
C2        C        0.5625        0.761905        0.24452554744525548        0        
C2        C        0.604167        0.761905        0.24452554744525548        0        
C2        C        0.645833        0.761905        0.24452554744525548        0        
C2        C        0.6875        0.761905        0.24452554744525548        0        
C2        C        0.729167        0.761905        0.24452554744525548        0        
C2        C        0.770833        0.761905        0.24452554744525548        0        
C2        C        0.8125        0.761905        0.24452554744525548        0        
C2        C        0.854167        0.761905        0.24452554744525548        0        
C2        C        0.895833        0.761905        0.24452554744525548        0        
C2        C        0.9375        0.761905        0.24452554744525548        0        
C2        C        0.979167        0.761905        0.24452554744525548        0        
C3        C        0.0        0.773809        0.24452554744525548        0        
C3        C        0.041667        0.773809        0.24452554744525548        0        
C3        C        0.083333        0.773809        0.24452554744525548        0        
C3        C        0.125        0.773809        0.24452554744525548        0        
C3        C        0.166667        0.773809        0.24452554744525548        0        
C3        C        0.208333        0.773809        0.24452554744525548        0        
C3        C        0.25        0.773809        0.24452554744525548        0        
C3        C        0.291667        0.773809        0.24452554744525548        0        
C3        C        0.333333        0.773809        0.24452554744525548        0        
C3        C        0.375        0.773809        0.24452554744525548        0        
C3        C        0.416667        0.773809        0.24452554744525548        0        
C3        C        0.458333        0.773809        0.24452554744525548        0        
C3        C        0.5        0.773809        0.24452554744525548        0        
C3        C        0.541667        0.773809        0.24452554744525548        0        
C3        C        0.583333        0.773809        0.24452554744525548        0        
C3        C        0.625        0.773809        0.24452554744525548        0        
C3        C        0.666667        0.773809        0.24452554744525548        0        
C3        C        0.708333        0.773809        0.24452554744525548        0        
C3        C        0.75        0.773809        0.24452554744525548        0        
C3        C        0.791667        0.773809        0.24452554744525548        0        
C3        C        0.833333        0.773809        0.24452554744525548        0        
C3        C        0.875        0.773809        0.24452554744525548        0        
C3        C        0.916667        0.773809        0.24452554744525548        0        
C3        C        0.958333        0.773809        0.24452554744525548        0        
C4        C        0.020833        0.738095        0.24452554744525548        0        
C4        C        0.0625        0.738095        0.24452554744525548        0        
C4        C        0.104167        0.738095        0.24452554744525548        0        
C4        C        0.145833        0.738095        0.24452554744525548        0        
C4        C        0.1875        0.738095        0.24452554744525548        0        
C4        C        0.229167        0.738095        0.24452554744525548        0        
C4        C        0.270833        0.738095        0.24452554744525548        0        
C4        C        0.3125        0.738095        0.24452554744525548        0        
C4        C        0.354167        0.738095        0.24452554744525548        0        
C4        C        0.395833        0.738095        0.24452554744525548        0        
C4        C        0.4375        0.738095        0.24452554744525548        0        
C4        C        0.479167        0.738095        0.24452554744525548        0        
C4        C        0.520833        0.738095        0.24452554744525548        0        
C4        C        0.5625        0.738095        0.24452554744525548        0        
C4        C        0.604167        0.738095        0.24452554744525548        0        
C4        C        0.645833        0.738095        0.24452554744525548        0        
C4        C        0.6875        0.738095        0.24452554744525548        0        
C4        C        0.729167        0.738095        0.24452554744525548        0        
C4        C        0.770833        0.738095        0.24452554744525548        0        
C4        C        0.8125        0.738095        0.24452554744525548        0        
C4        C        0.854167        0.738095        0.24452554744525548        0        
C4        C        0.895833        0.738095        0.24452554744525548        0        
C4        C        0.9375        0.738095        0.24452554744525548        0        
C4        C        0.979167        0.738095        0.24452554744525548        0        
C1        C        0.0        0.79762        0.24452554744525548        0        
C1        C        0.041667        0.79762        0.24452554744525548        0        
C1        C        0.083333        0.79762        0.24452554744525548        0        
C1        C        0.125        0.79762        0.24452554744525548        0        
C1        C        0.166667        0.79762        0.24452554744525548        0        
C1        C        0.208333        0.79762        0.24452554744525548        0        
C1        C        0.25        0.79762        0.24452554744525548        0        
C1        C        0.291667        0.79762        0.24452554744525548        0        
C1        C        0.333333        0.79762        0.24452554744525548        0        
C1        C        0.375        0.79762        0.24452554744525548        0        
C1        C        0.416667        0.79762        0.24452554744525548        0        
C1        C        0.458333        0.79762        0.24452554744525548        0        
C1        C        0.5        0.79762        0.24452554744525548        0        
C1        C        0.541667        0.79762        0.24452554744525548        0        
C1        C        0.583333        0.79762        0.24452554744525548        0        
C1        C        0.625        0.79762        0.24452554744525548        0        
C1        C        0.666667        0.79762        0.24452554744525548        0        
C1        C        0.708333        0.79762        0.24452554744525548        0        
C1        C        0.75        0.79762        0.24452554744525548        0        
C1        C        0.791667        0.79762        0.24452554744525548        0        
C1        C        0.833333        0.79762        0.24452554744525548        0        
C1        C        0.875        0.79762        0.24452554744525548        0        
C1        C        0.916667        0.79762        0.24452554744525548        0        
C1        C        0.958333        0.79762        0.24452554744525548        0        
C2        C        0.020833        0.833334        0.24452554744525548        0        
C2        C        0.0625        0.833334        0.24452554744525548        0        
C2        C        0.104167        0.833334        0.24452554744525548        0        
C2        C        0.145833        0.833334        0.24452554744525548        0        
C2        C        0.1875        0.833334        0.24452554744525548        0        
C2        C        0.229167        0.833334        0.24452554744525548        0        
C2        C        0.270833        0.833334        0.24452554744525548        0        
C2        C        0.3125        0.833334        0.24452554744525548        0        
C2        C        0.354167        0.833334        0.24452554744525548        0        
C2        C        0.395833        0.833334        0.24452554744525548        0        
C2        C        0.4375        0.833334        0.24452554744525548        0        
C2        C        0.479167        0.833334        0.24452554744525548        0        
C2        C        0.520833        0.833334        0.24452554744525548        0        
C2        C        0.5625        0.833334        0.24452554744525548        0        
C2        C        0.604167        0.833334        0.24452554744525548        0        
C2        C        0.645833        0.833334        0.24452554744525548        0        
C2        C        0.6875        0.833334        0.24452554744525548        0        
C2        C        0.729167        0.833334        0.24452554744525548        0        
C2        C        0.770833        0.833334        0.24452554744525548        0        
C2        C        0.8125        0.833334        0.24452554744525548        0        
C2        C        0.854167        0.833334        0.24452554744525548        0        
C2        C        0.895833        0.833334        0.24452554744525548        0        
C2        C        0.9375        0.833334        0.24452554744525548        0        
C2        C        0.979167        0.833334        0.24452554744525548        0        
C3        C        0.0        0.845238        0.24452554744525548        0        
C3        C        0.041667        0.845238        0.24452554744525548        0        
C3        C        0.083333        0.845238        0.24452554744525548        0        
C3        C        0.125        0.845238        0.24452554744525548        0        
C3        C        0.166667        0.845238        0.24452554744525548        0        
C3        C        0.208333        0.845238        0.24452554744525548        0        
C3        C        0.25        0.845238        0.24452554744525548        0        
C3        C        0.291667        0.845238        0.24452554744525548        0        
C3        C        0.333333        0.845238        0.24452554744525548        0        
C3        C        0.375        0.845238        0.24452554744525548        0        
C3        C        0.416667        0.845238        0.24452554744525548        0        
C3        C        0.458333        0.845238        0.24452554744525548        0        
C3        C        0.5        0.845238        0.24452554744525548        0        
C3        C        0.541667        0.845238        0.24452554744525548        0        
C3        C        0.583333        0.845238        0.24452554744525548        0        
C3        C        0.625        0.845238        0.24452554744525548        0        
C3        C        0.666667        0.845238        0.24452554744525548        0        
C3        C        0.708333        0.845238        0.24452554744525548        0        
C3        C        0.75        0.845238        0.24452554744525548        0        
C3        C        0.791667        0.845238        0.24452554744525548        0        
C3        C        0.833333        0.845238        0.24452554744525548        0        
C3        C        0.875        0.845238        0.24452554744525548        0        
C3        C        0.916667        0.845238        0.24452554744525548        0        
C3        C        0.958333        0.845238        0.24452554744525548        0        
C4        C        0.020833        0.809524        0.24452554744525548        0        
C4        C        0.0625        0.809524        0.24452554744525548        0        
C4        C        0.104167        0.809524        0.24452554744525548        0        
C4        C        0.145833        0.809524        0.24452554744525548        0        
C4        C        0.1875        0.809524        0.24452554744525548        0        
C4        C        0.229167        0.809524        0.24452554744525548        0        
C4        C        0.270833        0.809524        0.24452554744525548        0        
C4        C        0.3125        0.809524        0.24452554744525548        0        
C4        C        0.354167        0.809524        0.24452554744525548        0        
C4        C        0.395833        0.809524        0.24452554744525548        0        
C4        C        0.4375        0.809524        0.24452554744525548        0        
C4        C        0.479167        0.809524        0.24452554744525548        0        
C4        C        0.520833        0.809524        0.24452554744525548        0        
C4        C        0.5625        0.809524        0.24452554744525548        0        
C4        C        0.604167        0.809524        0.24452554744525548        0        
C4        C        0.645833        0.809524        0.24452554744525548        0        
C4        C        0.6875        0.809524        0.24452554744525548        0        
C4        C        0.729167        0.809524        0.24452554744525548        0        
C4        C        0.770833        0.809524        0.24452554744525548        0        
C4        C        0.8125        0.809524        0.24452554744525548        0        
C4        C        0.854167        0.809524        0.24452554744525548        0        
C4        C        0.895833        0.809524        0.24452554744525548        0        
C4        C        0.9375        0.809524        0.24452554744525548        0        
C4        C        0.979167        0.809524        0.24452554744525548        0        
C1        C        0.0        0.869048        0.24452554744525548        0        
C1        C        0.041667        0.869048        0.24452554744525548        0        
C1        C        0.083333        0.869048        0.24452554744525548        0        
C1        C        0.125        0.869048        0.24452554744525548        0        
C1        C        0.166667        0.869048        0.24452554744525548        0        
C1        C        0.208333        0.869048        0.24452554744525548        0        
C1        C        0.25        0.869048        0.24452554744525548        0        
C1        C        0.291667        0.869048        0.24452554744525548        0        
C1        C        0.333333        0.869048        0.24452554744525548        0        
C1        C        0.375        0.869048        0.24452554744525548        0        
C1        C        0.416667        0.869048        0.24452554744525548        0        
C1        C        0.458333        0.869048        0.24452554744525548        0        
C1        C        0.5        0.869048        0.24452554744525548        0        
C1        C        0.541667        0.869048        0.24452554744525548        0        
C1        C        0.583333        0.869048        0.24452554744525548        0        
C1        C        0.625        0.869048        0.24452554744525548        0        
C1        C        0.666667        0.869048        0.24452554744525548        0        
C1        C        0.708333        0.869048        0.24452554744525548        0        
C1        C        0.75        0.869048        0.24452554744525548        0        
C1        C        0.791667        0.869048        0.24452554744525548        0        
C1        C        0.833333        0.869048        0.24452554744525548        0        
C1        C        0.875        0.869048        0.24452554744525548        0        
C1        C        0.916667        0.869048        0.24452554744525548        0        
C1        C        0.958333        0.869048        0.24452554744525548        0        
C2        C        0.020833        0.904762        0.24452554744525548        0        
C2        C        0.0625        0.904762        0.24452554744525548        0        
C2        C        0.104167        0.904762        0.24452554744525548        0        
C2        C        0.145833        0.904762        0.24452554744525548        0        
C2        C        0.1875        0.904762        0.24452554744525548        0        
C2        C        0.229167        0.904762        0.24452554744525548        0        
C2        C        0.270833        0.904762        0.24452554744525548        0        
C2        C        0.3125        0.904762        0.24452554744525548        0        
C2        C        0.354167        0.904762        0.24452554744525548        0        
C2        C        0.395833        0.904762        0.24452554744525548        0        
C2        C        0.4375        0.904762        0.24452554744525548        0        
C2        C        0.479167        0.904762        0.24452554744525548        0        
C2        C        0.520833        0.904762        0.24452554744525548        0        
C2        C        0.5625        0.904762        0.24452554744525548        0        
C2        C        0.604167        0.904762        0.24452554744525548        0        
C2        C        0.645833        0.904762        0.24452554744525548        0        
C2        C        0.6875        0.904762        0.24452554744525548        0        
C2        C        0.729167        0.904762        0.24452554744525548        0        
C2        C        0.770833        0.904762        0.24452554744525548        0        
C2        C        0.8125        0.904762        0.24452554744525548        0        
C2        C        0.854167        0.904762        0.24452554744525548        0        
C2        C        0.895833        0.904762        0.24452554744525548        0        
C2        C        0.9375        0.904762        0.24452554744525548        0        
C2        C        0.979167        0.904762        0.24452554744525548        0        
C3        C        0.0        0.916667        0.24452554744525548        0        
C3        C        0.041667        0.916667        0.24452554744525548        0        
C3        C        0.083333        0.916667        0.24452554744525548        0        
C3        C        0.125        0.916667        0.24452554744525548        0        
C3        C        0.166667        0.916667        0.24452554744525548        0        
C3        C        0.208333        0.916667        0.24452554744525548        0        
C3        C        0.25        0.916667        0.24452554744525548        0        
C3        C        0.291667        0.916667        0.24452554744525548        0        
C3        C        0.333333        0.916667        0.24452554744525548        0        
C3        C        0.375        0.916667        0.24452554744525548        0        
C3        C        0.416667        0.916667        0.24452554744525548        0        
C3        C        0.458333        0.916667        0.24452554744525548        0        
C3        C        0.5        0.916667        0.24452554744525548        0        
C3        C        0.541667        0.916667        0.24452554744525548        0        
C3        C        0.583333        0.916667        0.24452554744525548        0        
C3        C        0.625        0.916667        0.24452554744525548        0        
C3        C        0.666667        0.916667        0.24452554744525548        0        
C3        C        0.708333        0.916667        0.24452554744525548        0        
C3        C        0.75        0.916667        0.24452554744525548        0        
C3        C        0.791667        0.916667        0.24452554744525548        0        
C3        C        0.833333        0.916667        0.24452554744525548        0        
C3        C        0.875        0.916667        0.24452554744525548        0        
C3        C        0.916667        0.916667        0.24452554744525548        0        
C3        C        0.958333        0.916667        0.24452554744525548        0        
C4        C        0.020833        0.880952        0.24452554744525548        0        
C4        C        0.0625        0.880952        0.24452554744525548        0        
C4        C        0.104167        0.880952        0.24452554744525548        0        
C4        C        0.145833        0.880952        0.24452554744525548        0        
C4        C        0.1875        0.880952        0.24452554744525548        0        
C4        C        0.229167        0.880952        0.24452554744525548        0        
C4        C        0.270833        0.880952        0.24452554744525548        0        
C4        C        0.3125        0.880952        0.24452554744525548        0        
C4        C        0.354167        0.880952        0.24452554744525548        0        
C4        C        0.395833        0.880952        0.24452554744525548        0        
C4        C        0.4375        0.880952        0.24452554744525548        0        
C4        C        0.479167        0.880952        0.24452554744525548        0        
C4        C        0.520833        0.880952        0.24452554744525548        0        
C4        C        0.5625        0.880952        0.24452554744525548        0        
C4        C        0.604167        0.880952        0.24452554744525548        0        
C4        C        0.645833        0.880952        0.24452554744525548        0        
C4        C        0.6875        0.880952        0.24452554744525548        0        
C4        C        0.729167        0.880952        0.24452554744525548        0        
C4        C        0.770833        0.880952        0.24452554744525548        0        
C4        C        0.8125        0.880952        0.24452554744525548        0        
C4        C        0.854167        0.880952        0.24452554744525548        0        
C4        C        0.895833        0.880952        0.24452554744525548        0        
C4        C        0.9375        0.880952        0.24452554744525548        0        
C4        C        0.979167        0.880952        0.24452554744525548        0        
C1        C        0.0        0.940477        0.24452554744525548        0        
C1        C        0.041667        0.940477        0.24452554744525548        0        
C1        C        0.083333        0.940477        0.24452554744525548        0        
C1        C        0.125        0.940477        0.24452554744525548        0        
C1        C        0.166667        0.940477        0.24452554744525548        0        
C1        C        0.208333        0.940477        0.24452554744525548        0        
C1        C        0.25        0.940477        0.24452554744525548        0        
C1        C        0.291667        0.940477        0.24452554744525548        0        
C1        C        0.333333        0.940477        0.24452554744525548        0        
C1        C        0.375        0.940477        0.24452554744525548        0        
C1        C        0.416667        0.940477        0.24452554744525548        0        
C1        C        0.458333        0.940477        0.24452554744525548        0        
C1        C        0.5        0.940477        0.24452554744525548        0        
C1        C        0.541667        0.940477        0.24452554744525548        0        
C1        C        0.583333        0.940477        0.24452554744525548        0        
C1        C        0.625        0.940477        0.24452554744525548        0        
C1        C        0.666667        0.940477        0.24452554744525548        0        
C1        C        0.708333        0.940477        0.24452554744525548        0        
C1        C        0.75        0.940477        0.24452554744525548        0        
C1        C        0.791667        0.940477        0.24452554744525548        0        
C1        C        0.833333        0.940477        0.24452554744525548        0        
C1        C        0.875        0.940477        0.24452554744525548        0        
C1        C        0.916667        0.940477        0.24452554744525548        0        
C1        C        0.958333        0.940477        0.24452554744525548        0        
C2        C        0.020833        0.976191        0.24452554744525548        0        
C2        C        0.0625        0.976191        0.24452554744525548        0        
C2        C        0.104167        0.976191        0.24452554744525548        0        
C2        C        0.145833        0.976191        0.24452554744525548        0        
C2        C        0.1875        0.976191        0.24452554744525548        0        
C2        C        0.229167        0.976191        0.24452554744525548        0        
C2        C        0.270833        0.976191        0.24452554744525548        0        
C2        C        0.3125        0.976191        0.24452554744525548        0        
C2        C        0.354167        0.976191        0.24452554744525548        0        
C2        C        0.395833        0.976191        0.24452554744525548        0        
C2        C        0.4375        0.976191        0.24452554744525548        0        
C2        C        0.479167        0.976191        0.24452554744525548        0        
C2        C        0.520833        0.976191        0.24452554744525548        0        
C2        C        0.5625        0.976191        0.24452554744525548        0        
C2        C        0.604167        0.976191        0.24452554744525548        0        
C2        C        0.645833        0.976191        0.24452554744525548        0        
C2        C        0.6875        0.976191        0.24452554744525548        0        
C2        C        0.729167        0.976191        0.24452554744525548        0        
C2        C        0.770833        0.976191        0.24452554744525548        0        
C2        C        0.8125        0.976191        0.24452554744525548        0        
C2        C        0.854167        0.976191        0.24452554744525548        0        
C2        C        0.895833        0.976191        0.24452554744525548        0        
C2        C        0.9375        0.976191        0.24452554744525548        0        
C2        C        0.979167        0.976191        0.24452554744525548        0        
C3        C        0.0        0.988095        0.24452554744525548        0        
C3        C        0.041667        0.988095        0.24452554744525548        0        
C3        C        0.083333        0.988095        0.24452554744525548        0        
C3        C        0.125        0.988095        0.24452554744525548        0        
C3        C        0.166667        0.988095        0.24452554744525548        0        
C3        C        0.208333        0.988095        0.24452554744525548        0        
C3        C        0.25        0.988095        0.24452554744525548        0        
C3        C        0.291667        0.988095        0.24452554744525548        0        
C3        C        0.333333        0.988095        0.24452554744525548        0        
C3        C        0.375        0.988095        0.24452554744525548        0        
C3        C        0.416667        0.988095        0.24452554744525548        0        
C3        C        0.458333        0.988095        0.24452554744525548        0        
C3        C        0.5        0.988095        0.24452554744525548        0        
C3        C        0.541667        0.988095        0.24452554744525548        0        
C3        C        0.583333        0.988095        0.24452554744525548        0        
C3        C        0.625        0.988095        0.24452554744525548        0        
C3        C        0.666667        0.988095        0.24452554744525548        0        
C3        C        0.708333        0.988095        0.24452554744525548        0        
C3        C        0.75        0.988095        0.24452554744525548        0        
C3        C        0.791667        0.988095        0.24452554744525548        0        
C3        C        0.833333        0.988095        0.24452554744525548        0        
C3        C        0.875        0.988095        0.24452554744525548        0        
C3        C        0.916667        0.988095        0.24452554744525548        0        
C3        C        0.958333        0.988095        0.24452554744525548        0        
C4        C        0.020833        0.952381        0.24452554744525548        0        
C4        C        0.0625        0.952381        0.24452554744525548        0        
C4        C        0.104167        0.952381        0.24452554744525548        0        
C4        C        0.145833        0.952381        0.24452554744525548        0        
C4        C        0.1875        0.952381        0.24452554744525548        0        
C4        C        0.229167        0.952381        0.24452554744525548        0        
C4        C        0.270833        0.952381        0.24452554744525548        0        
C4        C        0.3125        0.952381        0.24452554744525548        0        
C4        C        0.354167        0.952381        0.24452554744525548        0        
C4        C        0.395833        0.952381        0.24452554744525548        0        
C4        C        0.4375        0.952381        0.24452554744525548        0        
C4        C        0.479167        0.952381        0.24452554744525548        0        
C4        C        0.520833        0.952381        0.24452554744525548        0        
C4        C        0.5625        0.952381        0.24452554744525548        0        
C4        C        0.604167        0.952381        0.24452554744525548        0        
C4        C        0.645833        0.952381        0.24452554744525548        0        
C4        C        0.6875        0.952381        0.24452554744525548        0        
C4        C        0.729167        0.952381        0.24452554744525548        0        
C4        C        0.770833        0.952381        0.24452554744525548        0        
C4        C        0.8125        0.952381        0.24452554744525548        0        
C4        C        0.854167        0.952381        0.24452554744525548        0        
C4        C        0.895833        0.952381        0.24452554744525548        0        
C4        C        0.9375        0.952381        0.24452554744525548        0        
C4        C        0.979167        0.952381        0.24452554744525548        0        
C1        C        0.0        0.011905        0.48905109489051096        0        
C2        C        0.020833        0.047619        0.48905109489051096        0        
C3        C        0.0        0.059523        0.48905109489051096        0        
C4        C        0.020833        0.023809        0.48905109489051096        0        
C1        C        0.0        0.083334        0.48905109489051096        0        
C2        C        0.020833        0.119048        0.48905109489051096        0        
C3        C        0.0        0.130952        0.48905109489051096        0        
C4        C        0.020833        0.095238        0.48905109489051096        0        
C1        C        0.0        0.154762        0.48905109489051096        0        
C2        C        0.020833        0.190476        0.48905109489051096        0        
C3        C        0.0        0.202381        0.48905109489051096        0        
C4        C        0.020833        0.166666        0.48905109489051096        0        
C1        C        0.0        0.226191        0.48905109489051096        0        
C2        C        0.020833        0.261905        0.48905109489051096        0        
C3        C        0.0        0.273809        0.48905109489051096        0        
C4        C        0.020833        0.238095        0.48905109489051096        0        
C1        C        0.0        0.297619        0.48905109489051096        0        
C2        C        0.020833        0.333333        0.48905109489051096        0        
C3        C        0.0        0.345238        0.48905109489051096        0        
C4        C        0.020833        0.309524        0.48905109489051096        0        
C1        C        0.0        0.369048        0.48905109489051096        0        
C2        C        0.020833        0.404762        0.48905109489051096        0        
C3        C        0.0        0.416667        0.48905109489051096        0        
C4        C        0.020833        0.380952        0.48905109489051096        0        
C1        C        0.041667        0.011905        0.48905109489051096        0        
C2        C        0.0625        0.047619        0.48905109489051096        0        
C3        C        0.041667        0.059523        0.48905109489051096        0        
C4        C        0.0625        0.023809        0.48905109489051096        0        
C1        C        0.041667        0.083334        0.48905109489051096        0        
C2        C        0.0625        0.119048        0.48905109489051096        0        
C3        C        0.041667        0.130952        0.48905109489051096        0        
C4        C        0.0625        0.095238        0.48905109489051096        0        
C1        C        0.041667        0.154762        0.48905109489051096        0        
C2        C        0.0625        0.190476        0.48905109489051096        0        
C3        C        0.041667        0.202381        0.48905109489051096        0        
C4        C        0.0625        0.166666        0.48905109489051096        0        
C1        C        0.041667        0.226191        0.48905109489051096        0        
C2        C        0.0625        0.261905        0.48905109489051096        0        
C3        C        0.041667        0.273809        0.48905109489051096        0        
C4        C        0.0625        0.238095        0.48905109489051096        0        
C1        C        0.041667        0.297619        0.48905109489051096        0        
C2        C        0.0625        0.333333        0.48905109489051096        0        
C3        C        0.041667        0.345238        0.48905109489051096        0        
C4        C        0.0625        0.309524        0.48905109489051096        0        
C1        C        0.041667        0.369048        0.48905109489051096        0        
C2        C        0.0625        0.404762        0.48905109489051096        0        
C3        C        0.041667        0.416667        0.48905109489051096        0        
C4        C        0.0625        0.380952        0.48905109489051096        0        
C1        C        0.083333        0.011905        0.48905109489051096        0        
C2        C        0.104167        0.047619        0.48905109489051096        0        
C3        C        0.083333        0.059523        0.48905109489051096        0        
C4        C        0.104167        0.023809        0.48905109489051096        0        
C1        C        0.083333        0.083334        0.48905109489051096        0        
C2        C        0.104167        0.119048        0.48905109489051096        0        
C3        C        0.083333        0.130952        0.48905109489051096        0        
C4        C        0.104167        0.095238        0.48905109489051096        0        
C1        C        0.083333        0.154762        0.48905109489051096        0        
C2        C        0.104167        0.190476        0.48905109489051096        0        
C3        C        0.083333        0.202381        0.48905109489051096        0        
C4        C        0.104167        0.166666        0.48905109489051096        0        
C1        C        0.083333        0.226191        0.48905109489051096        0        
C2        C        0.104167        0.261905        0.48905109489051096        0        
C3        C        0.083333        0.273809        0.48905109489051096        0        
C4        C        0.104167        0.238095        0.48905109489051096        0        
C1        C        0.083333        0.297619        0.48905109489051096        0        
C2        C        0.104167        0.333333        0.48905109489051096        0        
C3        C        0.083333        0.345238        0.48905109489051096        0        
C4        C        0.104167        0.309524        0.48905109489051096        0        
C1        C        0.083333        0.369048        0.48905109489051096        0        
C2        C        0.104167        0.404762        0.48905109489051096        0        
C3        C        0.083333        0.416667        0.48905109489051096        0        
C4        C        0.104167        0.380952        0.48905109489051096        0        
C1        C        0.125        0.011905        0.48905109489051096        0        
C2        C        0.145833        0.047619        0.48905109489051096        0        
C3        C        0.125        0.059523        0.48905109489051096        0        
C4        C        0.145833        0.023809        0.48905109489051096        0        
C1        C        0.125        0.083334        0.48905109489051096        0        
C2        C        0.145833        0.119048        0.48905109489051096        0        
C3        C        0.125        0.130952        0.48905109489051096        0        
C4        C        0.145833        0.095238        0.48905109489051096        0        
C1        C        0.125        0.154762        0.48905109489051096        0        
C2        C        0.145833        0.190476        0.48905109489051096        0        
C3        C        0.125        0.202381        0.48905109489051096        0        
C4        C        0.145833        0.166666        0.48905109489051096        0        
C1        C        0.125        0.226191        0.48905109489051096        0        
C2        C        0.145833        0.261905        0.48905109489051096        0        
C3        C        0.125        0.273809        0.48905109489051096        0        
C4        C        0.145833        0.238095        0.48905109489051096        0        
C1        C        0.125        0.297619        0.48905109489051096        0        
C2        C        0.145833        0.333333        0.48905109489051096        0        
C3        C        0.125        0.345238        0.48905109489051096        0        
C4        C        0.145833        0.309524        0.48905109489051096        0        
C1        C        0.125        0.369048        0.48905109489051096        0        
C2        C        0.145833        0.404762        0.48905109489051096        0        
C3        C        0.125        0.416667        0.48905109489051096        0        
C4        C        0.145833        0.380952        0.48905109489051096        0        
C1        C        0.166667        0.011905        0.48905109489051096        0        
C2        C        0.1875        0.047619        0.48905109489051096        0        
C3        C        0.166667        0.059523        0.48905109489051096        0        
C4        C        0.1875        0.023809        0.48905109489051096        0        
C1        C        0.166667        0.083334        0.48905109489051096        0        
C2        C        0.1875        0.119048        0.48905109489051096        0        
C3        C        0.166667        0.130952        0.48905109489051096        0        
C4        C        0.1875        0.095238        0.48905109489051096        0        
C1        C        0.166667        0.154762        0.48905109489051096        0        
C2        C        0.1875        0.190476        0.48905109489051096        0        
C3        C        0.166667        0.202381        0.48905109489051096        0        
C4        C        0.1875        0.166666        0.48905109489051096        0        
C1        C        0.166667        0.226191        0.48905109489051096        0        
C2        C        0.1875        0.261905        0.48905109489051096        0        
C3        C        0.166667        0.273809        0.48905109489051096        0        
C4        C        0.1875        0.238095        0.48905109489051096        0        
C1        C        0.166667        0.297619        0.48905109489051096        0        
C2        C        0.1875        0.333333        0.48905109489051096        0        
C3        C        0.166667        0.345238        0.48905109489051096        0        
C4        C        0.1875        0.309524        0.48905109489051096        0        
C1        C        0.166667        0.369048        0.48905109489051096        0        
C2        C        0.1875        0.404762        0.48905109489051096        0        
C3        C        0.166667        0.416667        0.48905109489051096        0        
C4        C        0.1875        0.380952        0.48905109489051096        0        
C1        C        0.208333        0.011905        0.48905109489051096        0        
C2        C        0.229167        0.047619        0.48905109489051096        0        
C3        C        0.208333        0.059523        0.48905109489051096        0        
C4        C        0.229167        0.023809        0.48905109489051096        0        
C1        C        0.208333        0.083334        0.48905109489051096        0        
C2        C        0.229167        0.119048        0.48905109489051096        0        
C3        C        0.208333        0.130952        0.48905109489051096        0        
C4        C        0.229167        0.095238        0.48905109489051096        0        
C1        C        0.208333        0.154762        0.48905109489051096        0        
C2        C        0.229167        0.190476        0.48905109489051096        0        
C3        C        0.208333        0.202381        0.48905109489051096        0        
C4        C        0.229167        0.166666        0.48905109489051096        0        
C1        C        0.208333        0.226191        0.48905109489051096        0        
C2        C        0.229167        0.261905        0.48905109489051096        0        
C3        C        0.208333        0.273809        0.48905109489051096        0        
C4        C        0.229167        0.238095        0.48905109489051096        0        
C1        C        0.208333        0.297619        0.48905109489051096        0        
C2        C        0.229167        0.333333        0.48905109489051096        0        
C3        C        0.208333        0.345238        0.48905109489051096        0        
C4        C        0.229167        0.309524        0.48905109489051096        0        
C1        C        0.208333        0.369048        0.48905109489051096        0        
C2        C        0.229167        0.404762        0.48905109489051096        0        
C3        C        0.208333        0.416667        0.48905109489051096        0        
C4        C        0.229167        0.380952        0.48905109489051096        0        
C1        C        0.25        0.011905        0.48905109489051096        0        
C2        C        0.270833        0.047619        0.48905109489051096        0        
C3        C        0.25        0.059523        0.48905109489051096        0        
C4        C        0.270833        0.023809        0.48905109489051096        0        
C1        C        0.25        0.083334        0.48905109489051096        0        
C2        C        0.270833        0.119048        0.48905109489051096        0        
C3        C        0.25        0.130952        0.48905109489051096        0        
C4        C        0.270833        0.095238        0.48905109489051096        0        
C1        C        0.25        0.154762        0.48905109489051096        0        
C2        C        0.270833        0.190476        0.48905109489051096        0        
C3        C        0.25        0.202381        0.48905109489051096        0        
C4        C        0.270833        0.166666        0.48905109489051096        0        
C1        C        0.25        0.226191        0.48905109489051096        0        
C2        C        0.270833        0.261905        0.48905109489051096        0        
C3        C        0.25        0.273809        0.48905109489051096        0        
C4        C        0.270833        0.238095        0.48905109489051096        0        
C1        C        0.25        0.297619        0.48905109489051096        0        
C2        C        0.270833        0.333333        0.48905109489051096        0        
C3        C        0.25        0.345238        0.48905109489051096        0        
C4        C        0.270833        0.309524        0.48905109489051096        0        
C1        C        0.25        0.369048        0.48905109489051096        0        
C2        C        0.270833        0.404762        0.48905109489051096        0        
C3        C        0.25        0.416667        0.48905109489051096        0        
C4        C        0.270833        0.380952        0.48905109489051096        0        
C1        C        0.291667        0.011905        0.48905109489051096        0        
C2        C        0.3125        0.047619        0.48905109489051096        0        
C3        C        0.291667        0.059523        0.48905109489051096        0        
C4        C        0.3125        0.023809        0.48905109489051096        0        
C1        C        0.291667        0.083334        0.48905109489051096        0        
C2        C        0.3125        0.119048        0.48905109489051096        0        
C3        C        0.291667        0.130952        0.48905109489051096        0        
C4        C        0.3125        0.095238        0.48905109489051096        0        
C1        C        0.291667        0.154762        0.48905109489051096        0        
C2        C        0.3125        0.190476        0.48905109489051096        0        
C3        C        0.291667        0.202381        0.48905109489051096        0        
C4        C        0.3125        0.166666        0.48905109489051096        0        
C1        C        0.291667        0.226191        0.48905109489051096        0        
C2        C        0.3125        0.261905        0.48905109489051096        0        
C3        C        0.291667        0.273809        0.48905109489051096        0        
C4        C        0.3125        0.238095        0.48905109489051096        0        
C1        C        0.291667        0.297619        0.48905109489051096        0        
C2        C        0.3125        0.333333        0.48905109489051096        0        
C3        C        0.291667        0.345238        0.48905109489051096        0        
C4        C        0.3125        0.309524        0.48905109489051096        0        
C1        C        0.291667        0.369048        0.48905109489051096        0        
C2        C        0.3125        0.404762        0.48905109489051096        0        
C3        C        0.291667        0.416667        0.48905109489051096        0        
C4        C        0.3125        0.380952        0.48905109489051096        0        
C1        C        0.333333        0.011905        0.48905109489051096        0        
C2        C        0.354167        0.047619        0.48905109489051096        0        
C3        C        0.333333        0.059523        0.48905109489051096        0        
C4        C        0.354167        0.023809        0.48905109489051096        0        
C1        C        0.333333        0.083334        0.48905109489051096        0        
C2        C        0.354167        0.119048        0.48905109489051096        0        
C3        C        0.333333        0.130952        0.48905109489051096        0        
C4        C        0.354167        0.095238        0.48905109489051096        0        
C1        C        0.333333        0.154762        0.48905109489051096        0        
C2        C        0.354167        0.190476        0.48905109489051096        0        
C3        C        0.333333        0.202381        0.48905109489051096        0        
C4        C        0.354167        0.166666        0.48905109489051096        0        
C1        C        0.333333        0.226191        0.48905109489051096        0        
C2        C        0.354167        0.261905        0.48905109489051096        0        
C3        C        0.333333        0.273809        0.48905109489051096        0        
C4        C        0.354167        0.238095        0.48905109489051096        0        
C1        C        0.333333        0.297619        0.48905109489051096        0        
C2        C        0.354167        0.333333        0.48905109489051096        0        
C3        C        0.333333        0.345238        0.48905109489051096        0        
C4        C        0.354167        0.309524        0.48905109489051096        0        
C1        C        0.333333        0.369048        0.48905109489051096        0        
C2        C        0.354167        0.404762        0.48905109489051096        0        
C3        C        0.333333        0.416667        0.48905109489051096        0        
C4        C        0.354167        0.380952        0.48905109489051096        0        
C1        C        0.375        0.011905        0.48905109489051096        0        
C2        C        0.395833        0.047619        0.48905109489051096        0        
C3        C        0.375        0.059523        0.48905109489051096        0        
C4        C        0.395833        0.023809        0.48905109489051096        0        
C1        C        0.375        0.083334        0.48905109489051096        0        
C2        C        0.395833        0.119048        0.48905109489051096        0        
C3        C        0.375        0.130952        0.48905109489051096        0        
C4        C        0.395833        0.095238        0.48905109489051096        0        
C1        C        0.375        0.154762        0.48905109489051096        0        
C2        C        0.395833        0.190476        0.48905109489051096        0        
C3        C        0.375        0.202381        0.48905109489051096        0        
C4        C        0.395833        0.166666        0.48905109489051096        0        
C1        C        0.375        0.226191        0.48905109489051096        0        
C2        C        0.395833        0.261905        0.48905109489051096        0        
C3        C        0.375        0.273809        0.48905109489051096        0        
C4        C        0.395833        0.238095        0.48905109489051096        0        
C1        C        0.375        0.297619        0.48905109489051096        0        
C2        C        0.395833        0.333333        0.48905109489051096        0        
C3        C        0.375        0.345238        0.48905109489051096        0        
C4        C        0.395833        0.309524        0.48905109489051096        0        
C1        C        0.375        0.369048        0.48905109489051096        0        
C2        C        0.395833        0.404762        0.48905109489051096        0        
C3        C        0.375        0.416667        0.48905109489051096        0        
C4        C        0.395833        0.380952        0.48905109489051096        0        
C1        C        0.416667        0.011905        0.48905109489051096        0        
C2        C        0.4375        0.047619        0.48905109489051096        0        
C3        C        0.416667        0.059523        0.48905109489051096        0        
C4        C        0.4375        0.023809        0.48905109489051096        0        
C1        C        0.416667        0.083334        0.48905109489051096        0        
C2        C        0.4375        0.119048        0.48905109489051096        0        
C3        C        0.416667        0.130952        0.48905109489051096        0        
C4        C        0.4375        0.095238        0.48905109489051096        0        
C1        C        0.416667        0.154762        0.48905109489051096        0        
C2        C        0.4375        0.190476        0.48905109489051096        0        
C3        C        0.416667        0.202381        0.48905109489051096        0        
C4        C        0.4375        0.166666        0.48905109489051096        0        
C1        C        0.416667        0.226191        0.48905109489051096        0        
C2        C        0.4375        0.261905        0.48905109489051096        0        
C3        C        0.416667        0.273809        0.48905109489051096        0        
C4        C        0.4375        0.238095        0.48905109489051096        0        
C1        C        0.416667        0.297619        0.48905109489051096        0        
C2        C        0.4375        0.333333        0.48905109489051096        0        
C3        C        0.416667        0.345238        0.48905109489051096        0        
C4        C        0.4375        0.309524        0.48905109489051096        0        
C1        C        0.416667        0.369048        0.48905109489051096        0        
C2        C        0.4375        0.404762        0.48905109489051096        0        
C3        C        0.416667        0.416667        0.48905109489051096        0        
C4        C        0.4375        0.380952        0.48905109489051096        0        
C1        C        0.458333        0.011905        0.48905109489051096        0        
C2        C        0.479167        0.047619        0.48905109489051096        0        
C3        C        0.458333        0.059523        0.48905109489051096        0        
C4        C        0.479167        0.023809        0.48905109489051096        0        
C1        C        0.458333        0.083334        0.48905109489051096        0        
C2        C        0.479167        0.119048        0.48905109489051096        0        
C3        C        0.458333        0.130952        0.48905109489051096        0        
C4        C        0.479167        0.095238        0.48905109489051096        0        
C1        C        0.458333        0.154762        0.48905109489051096        0        
C2        C        0.479167        0.190476        0.48905109489051096        0        
C3        C        0.458333        0.202381        0.48905109489051096        0        
C4        C        0.479167        0.166666        0.48905109489051096        0        
C1        C        0.458333        0.226191        0.48905109489051096        0        
C2        C        0.479167        0.261905        0.48905109489051096        0        
C3        C        0.458333        0.273809        0.48905109489051096        0        
C4        C        0.479167        0.238095        0.48905109489051096        0        
C1        C        0.458333        0.297619        0.48905109489051096        0        
C2        C        0.479167        0.333333        0.48905109489051096        0        
C3        C        0.458333        0.345238        0.48905109489051096        0        
C4        C        0.479167        0.309524        0.48905109489051096        0        
C1        C        0.458333        0.369048        0.48905109489051096        0        
C2        C        0.479167        0.404762        0.48905109489051096        0        
C3        C        0.458333        0.416667        0.48905109489051096        0        
C4        C        0.479167        0.380952        0.48905109489051096        0        
C1        C        0.5        0.011905        0.48905109489051096        0        
C2        C        0.520833        0.047619        0.48905109489051096        0        
C3        C        0.5        0.059523        0.48905109489051096        0        
C4        C        0.520833        0.023809        0.48905109489051096        0        
C1        C        0.5        0.083334        0.48905109489051096        0        
C2        C        0.520833        0.119048        0.48905109489051096        0        
C3        C        0.5        0.130952        0.48905109489051096        0        
C4        C        0.520833        0.095238        0.48905109489051096        0        
C1        C        0.5        0.154762        0.48905109489051096        0        
C2        C        0.520833        0.190476        0.48905109489051096        0        
C3        C        0.5        0.202381        0.48905109489051096        0        
C4        C        0.520833        0.166666        0.48905109489051096        0        
C1        C        0.5        0.226191        0.48905109489051096        0        
C2        C        0.520833        0.261905        0.48905109489051096        0        
C3        C        0.5        0.273809        0.48905109489051096        0        
C4        C        0.520833        0.238095        0.48905109489051096        0        
C1        C        0.5        0.297619        0.48905109489051096        0        
C2        C        0.520833        0.333333        0.48905109489051096        0        
C3        C        0.5        0.345238        0.48905109489051096        0        
C4        C        0.520833        0.309524        0.48905109489051096        0        
C1        C        0.5        0.369048        0.48905109489051096        0        
C2        C        0.520833        0.404762        0.48905109489051096        0        
C3        C        0.5        0.416667        0.48905109489051096        0        
C4        C        0.520833        0.380952        0.48905109489051096        0        
C1        C        0.541667        0.011905        0.48905109489051096        0        
C2        C        0.5625        0.047619        0.48905109489051096        0        
C3        C        0.541667        0.059523        0.48905109489051096        0        
C4        C        0.5625        0.023809        0.48905109489051096        0        
C1        C        0.541667        0.083334        0.48905109489051096        0        
C2        C        0.5625        0.119048        0.48905109489051096        0        
C3        C        0.541667        0.130952        0.48905109489051096        0        
C4        C        0.5625        0.095238        0.48905109489051096        0        
C1        C        0.541667        0.154762        0.48905109489051096        0        
C2        C        0.5625        0.190476        0.48905109489051096        0        
C3        C        0.541667        0.202381        0.48905109489051096        0        
C4        C        0.5625        0.166666        0.48905109489051096        0        
C1        C        0.541667        0.226191        0.48905109489051096        0        
C2        C        0.5625        0.261905        0.48905109489051096        0        
C3        C        0.541667        0.273809        0.48905109489051096        0        
C4        C        0.5625        0.238095        0.48905109489051096        0        
C1        C        0.541667        0.297619        0.48905109489051096        0        
C2        C        0.5625        0.333333        0.48905109489051096        0        
C3        C        0.541667        0.345238        0.48905109489051096        0        
C4        C        0.5625        0.309524        0.48905109489051096        0        
C1        C        0.541667        0.369048        0.48905109489051096        0        
C2        C        0.5625        0.404762        0.48905109489051096        0        
C3        C        0.541667        0.416667        0.48905109489051096        0        
C4        C        0.5625        0.380952        0.48905109489051096        0        
C1        C        0.583333        0.011905        0.48905109489051096        0        
C2        C        0.604167        0.047619        0.48905109489051096        0        
C3        C        0.583333        0.059523        0.48905109489051096        0        
C4        C        0.604167        0.023809        0.48905109489051096        0        
C1        C        0.583333        0.083334        0.48905109489051096        0        
C2        C        0.604167        0.119048        0.48905109489051096        0        
C3        C        0.583333        0.130952        0.48905109489051096        0        
C4        C        0.604167        0.095238        0.48905109489051096        0        
C1        C        0.583333        0.154762        0.48905109489051096        0        
C2        C        0.604167        0.190476        0.48905109489051096        0        
C3        C        0.583333        0.202381        0.48905109489051096        0        
C4        C        0.604167        0.166666        0.48905109489051096        0        
C1        C        0.583333        0.226191        0.48905109489051096        0        
C2        C        0.604167        0.261905        0.48905109489051096        0        
C3        C        0.583333        0.273809        0.48905109489051096        0        
C4        C        0.604167        0.238095        0.48905109489051096        0        
C1        C        0.583333        0.297619        0.48905109489051096        0        
C2        C        0.604167        0.333333        0.48905109489051096        0        
C3        C        0.583333        0.345238        0.48905109489051096        0        
C4        C        0.604167        0.309524        0.48905109489051096        0        
C1        C        0.583333        0.369048        0.48905109489051096        0        
C2        C        0.604167        0.404762        0.48905109489051096        0        
C3        C        0.583333        0.416667        0.48905109489051096        0        
C4        C        0.604167        0.380952        0.48905109489051096        0        
C1        C        0.625        0.011905        0.48905109489051096        0        
C2        C        0.645833        0.047619        0.48905109489051096        0        
C3        C        0.625        0.059523        0.48905109489051096        0        
C4        C        0.645833        0.023809        0.48905109489051096        0        
C1        C        0.625        0.083334        0.48905109489051096        0        
C2        C        0.645833        0.119048        0.48905109489051096        0        
C3        C        0.625        0.130952        0.48905109489051096        0        
C4        C        0.645833        0.095238        0.48905109489051096        0        
C1        C        0.625        0.154762        0.48905109489051096        0        
C2        C        0.645833        0.190476        0.48905109489051096        0        
C3        C        0.625        0.202381        0.48905109489051096        0        
C4        C        0.645833        0.166666        0.48905109489051096        0        
C1        C        0.625        0.226191        0.48905109489051096        0        
C2        C        0.645833        0.261905        0.48905109489051096        0        
C3        C        0.625        0.273809        0.48905109489051096        0        
C4        C        0.645833        0.238095        0.48905109489051096        0        
C1        C        0.625        0.297619        0.48905109489051096        0        
C2        C        0.645833        0.333333        0.48905109489051096        0        
C3        C        0.625        0.345238        0.48905109489051096        0        
C4        C        0.645833        0.309524        0.48905109489051096        0        
C1        C        0.625        0.369048        0.48905109489051096        0        
C2        C        0.645833        0.404762        0.48905109489051096        0        
C3        C        0.625        0.416667        0.48905109489051096        0        
C4        C        0.645833        0.380952        0.48905109489051096        0        
C1        C        0.666667        0.011905        0.48905109489051096        0        
C3        C        0.666667        0.059523        0.48905109489051096        0        
C1        C        0.666667        0.083334        0.48905109489051096        0        
C3        C        0.666667        0.130952        0.48905109489051096        0        
C1        C        0.666667        0.154762        0.48905109489051096        0        
C3        C        0.666667        0.202381        0.48905109489051096        0        
C1        C        0.666667        0.226191        0.48905109489051096        0        
C3        C        0.666667        0.273809        0.48905109489051096        0        
C1        C        0.666667        0.297619        0.48905109489051096        0        
C3        C        0.666667        0.345238        0.48905109489051096        0        
C1        C        0.666667        0.369048        0.48905109489051096        0        
C3        C        0.666667        0.416667        0.48905109489051096        0        
C2        C        0.6875        0.047619        0.48905109489051096        0        
C4        C        0.6875        0.023809        0.48905109489051096        0        
C2        C        0.6875        0.119048        0.48905109489051096        0        
C4        C        0.6875        0.095238        0.48905109489051096        0        
C2        C        0.6875        0.190476        0.48905109489051096        0        
C4        C        0.6875        0.166666        0.48905109489051096        0        
C2        C        0.6875        0.261905        0.48905109489051096        0        
C4        C        0.6875        0.238095        0.48905109489051096        0        
C2        C        0.6875        0.333333        0.48905109489051096        0        
C4        C        0.6875        0.309524        0.48905109489051096        0        
C2        C        0.6875        0.404762        0.48905109489051096        0        
C4        C        0.6875        0.380952        0.48905109489051096        0        
C1        C        0.708333        0.011905        0.48905109489051096        0        
C3        C        0.708333        0.059523        0.48905109489051096        0        
C1        C        0.708333        0.083334        0.48905109489051096        0        
C3        C        0.708333        0.130952        0.48905109489051096        0        
C1        C        0.708333        0.154762        0.48905109489051096        0        
C3        C        0.708333        0.202381        0.48905109489051096        0        
C1        C        0.708333        0.226191        0.48905109489051096        0        
C3        C        0.708333        0.273809        0.48905109489051096        0        
C1        C        0.708333        0.297619        0.48905109489051096        0        
C3        C        0.708333        0.345238        0.48905109489051096        0        
C1        C        0.708333        0.369048        0.48905109489051096        0        
C3        C        0.708333        0.416667        0.48905109489051096        0        
C2        C        0.729167        0.047619        0.48905109489051096        0        
C4        C        0.729167        0.023809        0.48905109489051096        0        
C2        C        0.729167        0.119048        0.48905109489051096        0        
C4        C        0.729167        0.095238        0.48905109489051096        0        
C2        C        0.729167        0.190476        0.48905109489051096        0        
C4        C        0.729167        0.166666        0.48905109489051096        0        
C2        C        0.729167        0.261905        0.48905109489051096        0        
C4        C        0.729167        0.238095        0.48905109489051096        0        
C2        C        0.729167        0.333333        0.48905109489051096        0        
C4        C        0.729167        0.309524        0.48905109489051096        0        
C2        C        0.729167        0.404762        0.48905109489051096        0        
C4        C        0.729167        0.380952        0.48905109489051096        0        
C1        C        0.75        0.011905        0.48905109489051096        0        
C3        C        0.75        0.059523        0.48905109489051096        0        
C1        C        0.75        0.083334        0.48905109489051096        0        
C3        C        0.75        0.130952        0.48905109489051096        0        
C1        C        0.75        0.154762        0.48905109489051096        0        
C3        C        0.75        0.202381        0.48905109489051096        0        
C1        C        0.75        0.226191        0.48905109489051096        0        
C3        C        0.75        0.273809        0.48905109489051096        0        
C1        C        0.75        0.297619        0.48905109489051096        0        
C3        C        0.75        0.345238        0.48905109489051096        0        
C1        C        0.75        0.369048        0.48905109489051096        0        
C3        C        0.75        0.416667        0.48905109489051096        0        
C2        C        0.770833        0.047619        0.48905109489051096        0        
C4        C        0.770833        0.023809        0.48905109489051096        0        
C2        C        0.770833        0.119048        0.48905109489051096        0        
C4        C        0.770833        0.095238        0.48905109489051096        0        
C2        C        0.770833        0.190476        0.48905109489051096        0        
C4        C        0.770833        0.166666        0.48905109489051096        0        
C2        C        0.770833        0.261905        0.48905109489051096        0        
C4        C        0.770833        0.238095        0.48905109489051096        0        
C2        C        0.770833        0.333333        0.48905109489051096        0        
C4        C        0.770833        0.309524        0.48905109489051096        0        
C2        C        0.770833        0.404762        0.48905109489051096        0        
C4        C        0.770833        0.380952        0.48905109489051096        0        
C1        C        0.791667        0.011905        0.48905109489051096        0        
C3        C        0.791667        0.059523        0.48905109489051096        0        
C1        C        0.791667        0.083334        0.48905109489051096        0        
C3        C        0.791667        0.130952        0.48905109489051096        0        
C1        C        0.791667        0.154762        0.48905109489051096        0        
C3        C        0.791667        0.202381        0.48905109489051096        0        
C1        C        0.791667        0.226191        0.48905109489051096        0        
C3        C        0.791667        0.273809        0.48905109489051096        0        
C1        C        0.791667        0.297619        0.48905109489051096        0        
C3        C        0.791667        0.345238        0.48905109489051096        0        
C1        C        0.791667        0.369048        0.48905109489051096        0        
C3        C        0.791667        0.416667        0.48905109489051096        0        
C2        C        0.8125        0.047619        0.48905109489051096        0        
C4        C        0.8125        0.023809        0.48905109489051096        0        
C2        C        0.8125        0.119048        0.48905109489051096        0        
C4        C        0.8125        0.095238        0.48905109489051096        0        
C2        C        0.8125        0.190476        0.48905109489051096        0        
C4        C        0.8125        0.166666        0.48905109489051096        0        
C2        C        0.8125        0.261905        0.48905109489051096        0        
C4        C        0.8125        0.238095        0.48905109489051096        0        
C2        C        0.8125        0.333333        0.48905109489051096        0        
C4        C        0.8125        0.309524        0.48905109489051096        0        
C2        C        0.8125        0.404762        0.48905109489051096        0        
C4        C        0.8125        0.380952        0.48905109489051096        0        
C1        C        0.833333        0.011905        0.48905109489051096        0        
C3        C        0.833333        0.059523        0.48905109489051096        0        
C1        C        0.833333        0.083334        0.48905109489051096        0        
C3        C        0.833333        0.130952        0.48905109489051096        0        
C1        C        0.833333        0.154762        0.48905109489051096        0        
C3        C        0.833333        0.202381        0.48905109489051096        0        
C1        C        0.833333        0.226191        0.48905109489051096        0        
C3        C        0.833333        0.273809        0.48905109489051096        0        
C1        C        0.833333        0.297619        0.48905109489051096        0        
C3        C        0.833333        0.345238        0.48905109489051096        0        
C1        C        0.833333        0.369048        0.48905109489051096        0        
C3        C        0.833333        0.416667        0.48905109489051096        0        
C2        C        0.854167        0.047619        0.48905109489051096        0        
C4        C        0.854167        0.023809        0.48905109489051096        0        
C2        C        0.854167        0.119048        0.48905109489051096        0        
C4        C        0.854167        0.095238        0.48905109489051096        0        
C2        C        0.854167        0.190476        0.48905109489051096        0        
C4        C        0.854167        0.166666        0.48905109489051096        0        
C2        C        0.854167        0.261905        0.48905109489051096        0        
C4        C        0.854167        0.238095        0.48905109489051096        0        
C2        C        0.854167        0.333333        0.48905109489051096        0        
C4        C        0.854167        0.309524        0.48905109489051096        0        
C2        C        0.854167        0.404762        0.48905109489051096        0        
C4        C        0.854167        0.380952        0.48905109489051096        0        
C1        C        0.875        0.011905        0.48905109489051096        0        
C3        C        0.875        0.059523        0.48905109489051096        0        
C1        C        0.875        0.083334        0.48905109489051096        0        
C3        C        0.875        0.130952        0.48905109489051096        0        
C1        C        0.875        0.154762        0.48905109489051096        0        
C3        C        0.875        0.202381        0.48905109489051096        0        
C1        C        0.875        0.226191        0.48905109489051096        0        
C3        C        0.875        0.273809        0.48905109489051096        0        
C1        C        0.875        0.297619        0.48905109489051096        0        
C3        C        0.875        0.345238        0.48905109489051096        0        
C1        C        0.875        0.369048        0.48905109489051096        0        
C3        C        0.875        0.416667        0.48905109489051096        0        
C2        C        0.895833        0.047619        0.48905109489051096        0        
C4        C        0.895833        0.023809        0.48905109489051096        0        
C2        C        0.895833        0.119048        0.48905109489051096        0        
C4        C        0.895833        0.095238        0.48905109489051096        0        
C2        C        0.895833        0.190476        0.48905109489051096        0        
C4        C        0.895833        0.166666        0.48905109489051096        0        
C2        C        0.895833        0.261905        0.48905109489051096        0        
C4        C        0.895833        0.238095        0.48905109489051096        0        
C2        C        0.895833        0.333333        0.48905109489051096        0        
C4        C        0.895833        0.309524        0.48905109489051096        0        
C2        C        0.895833        0.404762        0.48905109489051096        0        
C4        C        0.895833        0.380952        0.48905109489051096        0        
C1        C        0.916667        0.011905        0.48905109489051096        0        
C3        C        0.916667        0.059523        0.48905109489051096        0        
C1        C        0.916667        0.083334        0.48905109489051096        0        
C3        C        0.916667        0.130952        0.48905109489051096        0        
C1        C        0.916667        0.154762        0.48905109489051096        0        
C3        C        0.916667        0.202381        0.48905109489051096        0        
C1        C        0.916667        0.226191        0.48905109489051096        0        
C3        C        0.916667        0.273809        0.48905109489051096        0        
C1        C        0.916667        0.297619        0.48905109489051096        0        
C3        C        0.916667        0.345238        0.48905109489051096        0        
C1        C        0.916667        0.369048        0.48905109489051096        0        
C3        C        0.916667        0.416667        0.48905109489051096        0        
C2        C        0.9375        0.047619        0.48905109489051096        0        
C4        C        0.9375        0.023809        0.48905109489051096        0        
C2        C        0.9375        0.119048        0.48905109489051096        0        
C4        C        0.9375        0.095238        0.48905109489051096        0        
C2        C        0.9375        0.190476        0.48905109489051096        0        
C4        C        0.9375        0.166666        0.48905109489051096        0        
C2        C        0.9375        0.261905        0.48905109489051096        0        
C4        C        0.9375        0.238095        0.48905109489051096        0        
C2        C        0.9375        0.333333        0.48905109489051096        0        
C4        C        0.9375        0.309524        0.48905109489051096        0        
C2        C        0.9375        0.404762        0.48905109489051096        0        
C4        C        0.9375        0.380952        0.48905109489051096        0        
C1        C        0.958333        0.011905        0.48905109489051096        0        
C3        C        0.958333        0.059523        0.48905109489051096        0        
C1        C        0.958333        0.083334        0.48905109489051096        0        
C3        C        0.958333        0.130952        0.48905109489051096        0        
C1        C        0.958333        0.154762        0.48905109489051096        0        
C3        C        0.958333        0.202381        0.48905109489051096        0        
C1        C        0.958333        0.226191        0.48905109489051096        0        
C3        C        0.958333        0.273809        0.48905109489051096        0        
C1        C        0.958333        0.297619        0.48905109489051096        0        
C3        C        0.958333        0.345238        0.48905109489051096        0        
C1        C        0.958333        0.369048        0.48905109489051096        0        
C3        C        0.958333        0.416667        0.48905109489051096        0        
C2        C        0.979167        0.047619        0.48905109489051096        0        
C4        C        0.979167        0.023809        0.48905109489051096        0        
C2        C        0.979167        0.119048        0.48905109489051096        0        
C4        C        0.979167        0.095238        0.48905109489051096        0        
C2        C        0.979167        0.190476        0.48905109489051096        0        
C4        C        0.979167        0.166666        0.48905109489051096        0        
C2        C        0.979167        0.261905        0.48905109489051096        0        
C4        C        0.979167        0.238095        0.48905109489051096        0        
C2        C        0.979167        0.333333        0.48905109489051096        0        
C4        C        0.979167        0.309524        0.48905109489051096        0        
C2        C        0.979167        0.404762        0.48905109489051096        0        
C4        C        0.979167        0.380952        0.48905109489051096        0        
C1        C        0.0        0.440477        0.48905109489051096        0        
C1        C        0.041667        0.440477        0.48905109489051096        0        
C1        C        0.083333        0.440477        0.48905109489051096        0        
C1        C        0.125        0.440477        0.48905109489051096        0        
C1        C        0.166667        0.440477        0.48905109489051096        0        
C1        C        0.208333        0.440477        0.48905109489051096        0        
C1        C        0.25        0.440477        0.48905109489051096        0        
C1        C        0.291667        0.440477        0.48905109489051096        0        
C1        C        0.333333        0.440477        0.48905109489051096        0        
C1        C        0.375        0.440477        0.48905109489051096        0        
C1        C        0.416667        0.440477        0.48905109489051096        0        
C1        C        0.458333        0.440477        0.48905109489051096        0        
C1        C        0.5        0.440477        0.48905109489051096        0        
C1        C        0.541667        0.440477        0.48905109489051096        0        
C1        C        0.583333        0.440477        0.48905109489051096        0        
C1        C        0.625        0.440477        0.48905109489051096        0        
C1        C        0.666667        0.440477        0.48905109489051096        0        
C1        C        0.708333        0.440477        0.48905109489051096        0        
C1        C        0.75        0.440477        0.48905109489051096        0        
C1        C        0.791667        0.440477        0.48905109489051096        0        
C1        C        0.833333        0.440477        0.48905109489051096        0        
C1        C        0.875        0.440477        0.48905109489051096        0        
C1        C        0.916667        0.440477        0.48905109489051096        0        
C1        C        0.958333        0.440477        0.48905109489051096        0        
C2        C        0.020833        0.476191        0.48905109489051096        0        
C2        C        0.0625        0.476191        0.48905109489051096        0        
C2        C        0.104167        0.476191        0.48905109489051096        0        
C2        C        0.145833        0.476191        0.48905109489051096        0        
C2        C        0.1875        0.476191        0.48905109489051096        0        
C2        C        0.229167        0.476191        0.48905109489051096        0        
C2        C        0.270833        0.476191        0.48905109489051096        0        
C2        C        0.3125        0.476191        0.48905109489051096        0        
C2        C        0.354167        0.476191        0.48905109489051096        0        
C2        C        0.395833        0.476191        0.48905109489051096        0        
C2        C        0.4375        0.476191        0.48905109489051096        0        
C2        C        0.479167        0.476191        0.48905109489051096        0        
C2        C        0.520833        0.476191        0.48905109489051096        0        
C2        C        0.5625        0.476191        0.48905109489051096        0        
C2        C        0.604167        0.476191        0.48905109489051096        0        
C2        C        0.645833        0.476191        0.48905109489051096        0        
C2        C        0.6875        0.476191        0.48905109489051096        0        
C2        C        0.729167        0.476191        0.48905109489051096        0        
C2        C        0.770833        0.476191        0.48905109489051096        0        
C2        C        0.8125        0.476191        0.48905109489051096        0        
C2        C        0.854167        0.476191        0.48905109489051096        0        
C2        C        0.895833        0.476191        0.48905109489051096        0        
C2        C        0.9375        0.476191        0.48905109489051096        0        
C2        C        0.979167        0.476191        0.48905109489051096        0        
C3        C        0.0        0.488095        0.48905109489051096        0        
C3        C        0.041667        0.488095        0.48905109489051096        0        
C3        C        0.083333        0.488095        0.48905109489051096        0        
C3        C        0.125        0.488095        0.48905109489051096        0        
C3        C        0.166667        0.488095        0.48905109489051096        0        
C3        C        0.208333        0.488095        0.48905109489051096        0        
C3        C        0.25        0.488095        0.48905109489051096        0        
C3        C        0.291667        0.488095        0.48905109489051096        0        
C3        C        0.333333        0.488095        0.48905109489051096        0        
C3        C        0.375        0.488095        0.48905109489051096        0        
C3        C        0.416667        0.488095        0.48905109489051096        0        
C3        C        0.458333        0.488095        0.48905109489051096        0        
C3        C        0.5        0.488095        0.48905109489051096        0        
C3        C        0.541667        0.488095        0.48905109489051096        0        
C3        C        0.583333        0.488095        0.48905109489051096        0        
C3        C        0.625        0.488095        0.48905109489051096        0        
C3        C        0.666667        0.488095        0.48905109489051096        0        
C3        C        0.708333        0.488095        0.48905109489051096        0        
C3        C        0.75        0.488095        0.48905109489051096        0        
C3        C        0.791667        0.488095        0.48905109489051096        0        
C3        C        0.833333        0.488095        0.48905109489051096        0        
C3        C        0.875        0.488095        0.48905109489051096        0        
C3        C        0.916667        0.488095        0.48905109489051096        0        
C3        C        0.958333        0.488095        0.48905109489051096        0        
C4        C        0.020833        0.452381        0.48905109489051096        0        
C4        C        0.0625        0.452381        0.48905109489051096        0        
C4        C        0.104167        0.452381        0.48905109489051096        0        
C4        C        0.145833        0.452381        0.48905109489051096        0        
C4        C        0.1875        0.452381        0.48905109489051096        0        
C4        C        0.229167        0.452381        0.48905109489051096        0        
C4        C        0.270833        0.452381        0.48905109489051096        0        
C4        C        0.3125        0.452381        0.48905109489051096        0        
C4        C        0.354167        0.452381        0.48905109489051096        0        
C4        C        0.395833        0.452381        0.48905109489051096        0        
C4        C        0.4375        0.452381        0.48905109489051096        0        
C4        C        0.479167        0.452381        0.48905109489051096        0        
C4        C        0.520833        0.452381        0.48905109489051096        0        
C4        C        0.5625        0.452381        0.48905109489051096        0        
C4        C        0.604167        0.452381        0.48905109489051096        0        
C4        C        0.645833        0.452381        0.48905109489051096        0        
C4        C        0.6875        0.452381        0.48905109489051096        0        
C4        C        0.729167        0.452381        0.48905109489051096        0        
C4        C        0.770833        0.452381        0.48905109489051096        0        
C4        C        0.8125        0.452381        0.48905109489051096        0        
C4        C        0.854167        0.452381        0.48905109489051096        0        
C4        C        0.895833        0.452381        0.48905109489051096        0        
C4        C        0.9375        0.452381        0.48905109489051096        0        
C4        C        0.979167        0.452381        0.48905109489051096        0        
C1        C        0.0        0.511905        0.48905109489051096        0        
C1        C        0.041667        0.511905        0.48905109489051096        0        
C1        C        0.083333        0.511905        0.48905109489051096        0        
C1        C        0.125        0.511905        0.48905109489051096        0        
C1        C        0.166667        0.511905        0.48905109489051096        0        
C1        C        0.208333        0.511905        0.48905109489051096        0        
C1        C        0.25        0.511905        0.48905109489051096        0        
C1        C        0.291667        0.511905        0.48905109489051096        0        
C1        C        0.333333        0.511905        0.48905109489051096        0        
C1        C        0.375        0.511905        0.48905109489051096        0        
C1        C        0.416667        0.511905        0.48905109489051096        0        
C1        C        0.458333        0.511905        0.48905109489051096        0        
C1        C        0.5        0.511905        0.48905109489051096        0        
C1        C        0.541667        0.511905        0.48905109489051096        0        
C1        C        0.583333        0.511905        0.48905109489051096        0        
C1        C        0.625        0.511905        0.48905109489051096        0        
C1        C        0.666667        0.511905        0.48905109489051096        0        
C1        C        0.708333        0.511905        0.48905109489051096        0        
C1        C        0.75        0.511905        0.48905109489051096        0        
C1        C        0.791667        0.511905        0.48905109489051096        0        
C1        C        0.833333        0.511905        0.48905109489051096        0        
C1        C        0.875        0.511905        0.48905109489051096        0        
C1        C        0.916667        0.511905        0.48905109489051096        0        
C1        C        0.958333        0.511905        0.48905109489051096        0        
C2        C        0.020833        0.547619        0.48905109489051096        0        
C2        C        0.0625        0.547619        0.48905109489051096        0        
C2        C        0.104167        0.547619        0.48905109489051096        0        
C2        C        0.145833        0.547619        0.48905109489051096        0        
C2        C        0.1875        0.547619        0.48905109489051096        0        
C2        C        0.229167        0.547619        0.48905109489051096        0        
C2        C        0.270833        0.547619        0.48905109489051096        0        
C2        C        0.3125        0.547619        0.48905109489051096        0        
C2        C        0.354167        0.547619        0.48905109489051096        0        
C2        C        0.395833        0.547619        0.48905109489051096        0        
C2        C        0.4375        0.547619        0.48905109489051096        0        
C2        C        0.479167        0.547619        0.48905109489051096        0        
C2        C        0.520833        0.547619        0.48905109489051096        0        
C2        C        0.5625        0.547619        0.48905109489051096        0        
C2        C        0.604167        0.547619        0.48905109489051096        0        
C2        C        0.645833        0.547619        0.48905109489051096        0        
C2        C        0.6875        0.547619        0.48905109489051096        0        
C2        C        0.729167        0.547619        0.48905109489051096        0        
C2        C        0.770833        0.547619        0.48905109489051096        0        
C2        C        0.8125        0.547619        0.48905109489051096        0        
C2        C        0.854167        0.547619        0.48905109489051096        0        
C2        C        0.895833        0.547619        0.48905109489051096        0        
C2        C        0.9375        0.547619        0.48905109489051096        0        
C2        C        0.979167        0.547619        0.48905109489051096        0        
C3        C        0.0        0.559524        0.48905109489051096        0        
C3        C        0.041667        0.559524        0.48905109489051096        0        
C3        C        0.083333        0.559524        0.48905109489051096        0        
C3        C        0.125        0.559524        0.48905109489051096        0        
C3        C        0.166667        0.559524        0.48905109489051096        0        
C3        C        0.208333        0.559524        0.48905109489051096        0        
C3        C        0.25        0.559524        0.48905109489051096        0        
C3        C        0.291667        0.559524        0.48905109489051096        0        
C3        C        0.333333        0.559524        0.48905109489051096        0        
C3        C        0.375        0.559524        0.48905109489051096        0        
C3        C        0.416667        0.559524        0.48905109489051096        0        
C3        C        0.458333        0.559524        0.48905109489051096        0        
C3        C        0.5        0.559524        0.48905109489051096        0        
C3        C        0.541667        0.559524        0.48905109489051096        0        
C3        C        0.583333        0.559524        0.48905109489051096        0        
C3        C        0.625        0.559524        0.48905109489051096        0        
C3        C        0.666667        0.559524        0.48905109489051096        0        
C3        C        0.708333        0.559524        0.48905109489051096        0        
C3        C        0.75        0.559524        0.48905109489051096        0        
C3        C        0.791667        0.559524        0.48905109489051096        0        
C3        C        0.833333        0.559524        0.48905109489051096        0        
C3        C        0.875        0.559524        0.48905109489051096        0        
C3        C        0.916667        0.559524        0.48905109489051096        0        
C3        C        0.958333        0.559524        0.48905109489051096        0        
C4        C        0.020833        0.523809        0.48905109489051096        0        
C4        C        0.0625        0.523809        0.48905109489051096        0        
C4        C        0.104167        0.523809        0.48905109489051096        0        
C4        C        0.145833        0.523809        0.48905109489051096        0        
C4        C        0.1875        0.523809        0.48905109489051096        0        
C4        C        0.229167        0.523809        0.48905109489051096        0        
C4        C        0.270833        0.523809        0.48905109489051096        0        
C4        C        0.3125        0.523809        0.48905109489051096        0        
C4        C        0.354167        0.523809        0.48905109489051096        0        
C4        C        0.395833        0.523809        0.48905109489051096        0        
C4        C        0.4375        0.523809        0.48905109489051096        0        
C4        C        0.479167        0.523809        0.48905109489051096        0        
C4        C        0.520833        0.523809        0.48905109489051096        0        
C4        C        0.5625        0.523809        0.48905109489051096        0        
C4        C        0.604167        0.523809        0.48905109489051096        0        
C4        C        0.645833        0.523809        0.48905109489051096        0        
C4        C        0.6875        0.523809        0.48905109489051096        0        
C4        C        0.729167        0.523809        0.48905109489051096        0        
C4        C        0.770833        0.523809        0.48905109489051096        0        
C4        C        0.8125        0.523809        0.48905109489051096        0        
C4        C        0.854167        0.523809        0.48905109489051096        0        
C4        C        0.895833        0.523809        0.48905109489051096        0        
C4        C        0.9375        0.523809        0.48905109489051096        0        
C4        C        0.979167        0.523809        0.48905109489051096        0        
C1        C        0.0        0.583334        0.48905109489051096        0        
C1        C        0.041667        0.583334        0.48905109489051096        0        
C1        C        0.083333        0.583334        0.48905109489051096        0        
C1        C        0.125        0.583334        0.48905109489051096        0        
C1        C        0.166667        0.583334        0.48905109489051096        0        
C1        C        0.208333        0.583334        0.48905109489051096        0        
C1        C        0.25        0.583334        0.48905109489051096        0        
C1        C        0.291667        0.583334        0.48905109489051096        0        
C1        C        0.333333        0.583334        0.48905109489051096        0        
C1        C        0.375        0.583334        0.48905109489051096        0        
C1        C        0.416667        0.583334        0.48905109489051096        0        
C1        C        0.458333        0.583334        0.48905109489051096        0        
C1        C        0.5        0.583334        0.48905109489051096        0        
C1        C        0.541667        0.583334        0.48905109489051096        0        
C1        C        0.583333        0.583334        0.48905109489051096        0        
C1        C        0.625        0.583334        0.48905109489051096        0        
C1        C        0.666667        0.583334        0.48905109489051096        0        
C1        C        0.708333        0.583334        0.48905109489051096        0        
C1        C        0.75        0.583334        0.48905109489051096        0        
C1        C        0.791667        0.583334        0.48905109489051096        0        
C1        C        0.833333        0.583334        0.48905109489051096        0        
C1        C        0.875        0.583334        0.48905109489051096        0        
C1        C        0.916667        0.583334        0.48905109489051096        0        
C1        C        0.958333        0.583334        0.48905109489051096        0        
C2        C        0.020833        0.619048        0.48905109489051096        0        
C2        C        0.0625        0.619048        0.48905109489051096        0        
C2        C        0.104167        0.619048        0.48905109489051096        0        
C2        C        0.145833        0.619048        0.48905109489051096        0        
C2        C        0.1875        0.619048        0.48905109489051096        0        
C2        C        0.229167        0.619048        0.48905109489051096        0        
C2        C        0.270833        0.619048        0.48905109489051096        0        
C2        C        0.3125        0.619048        0.48905109489051096        0        
C2        C        0.354167        0.619048        0.48905109489051096        0        
C2        C        0.395833        0.619048        0.48905109489051096        0        
C2        C        0.4375        0.619048        0.48905109489051096        0        
C2        C        0.479167        0.619048        0.48905109489051096        0        
C2        C        0.520833        0.619048        0.48905109489051096        0        
C2        C        0.5625        0.619048        0.48905109489051096        0        
C2        C        0.604167        0.619048        0.48905109489051096        0        
C2        C        0.645833        0.619048        0.48905109489051096        0        
C2        C        0.6875        0.619048        0.48905109489051096        0        
C2        C        0.729167        0.619048        0.48905109489051096        0        
C2        C        0.770833        0.619048        0.48905109489051096        0        
C2        C        0.8125        0.619048        0.48905109489051096        0        
C2        C        0.854167        0.619048        0.48905109489051096        0        
C2        C        0.895833        0.619048        0.48905109489051096        0        
C2        C        0.9375        0.619048        0.48905109489051096        0        
C2        C        0.979167        0.619048        0.48905109489051096        0        
C3        C        0.0        0.630952        0.48905109489051096        0        
C3        C        0.041667        0.630952        0.48905109489051096        0        
C3        C        0.083333        0.630952        0.48905109489051096        0        
C3        C        0.125        0.630952        0.48905109489051096        0        
C3        C        0.166667        0.630952        0.48905109489051096        0        
C3        C        0.208333        0.630952        0.48905109489051096        0        
C3        C        0.25        0.630952        0.48905109489051096        0        
C3        C        0.291667        0.630952        0.48905109489051096        0        
C3        C        0.333333        0.630952        0.48905109489051096        0        
C3        C        0.375        0.630952        0.48905109489051096        0        
C3        C        0.416667        0.630952        0.48905109489051096        0        
C3        C        0.458333        0.630952        0.48905109489051096        0        
C3        C        0.5        0.630952        0.48905109489051096        0        
C3        C        0.541667        0.630952        0.48905109489051096        0        
C3        C        0.583333        0.630952        0.48905109489051096        0        
C3        C        0.625        0.630952        0.48905109489051096        0        
C3        C        0.666667        0.630952        0.48905109489051096        0        
C3        C        0.708333        0.630952        0.48905109489051096        0        
C3        C        0.75        0.630952        0.48905109489051096        0        
C3        C        0.791667        0.630952        0.48905109489051096        0        
C3        C        0.833333        0.630952        0.48905109489051096        0        
C3        C        0.875        0.630952        0.48905109489051096        0        
C3        C        0.916667        0.630952        0.48905109489051096        0        
C3        C        0.958333        0.630952        0.48905109489051096        0        
C4        C        0.020833        0.595238        0.48905109489051096        0        
C4        C        0.0625        0.595238        0.48905109489051096        0        
C4        C        0.104167        0.595238        0.48905109489051096        0        
C4        C        0.145833        0.595238        0.48905109489051096        0        
C4        C        0.1875        0.595238        0.48905109489051096        0        
C4        C        0.229167        0.595238        0.48905109489051096        0        
C4        C        0.270833        0.595238        0.48905109489051096        0        
C4        C        0.3125        0.595238        0.48905109489051096        0        
C4        C        0.354167        0.595238        0.48905109489051096        0        
C4        C        0.395833        0.595238        0.48905109489051096        0        
C4        C        0.4375        0.595238        0.48905109489051096        0        
C4        C        0.479167        0.595238        0.48905109489051096        0        
C4        C        0.520833        0.595238        0.48905109489051096        0        
C4        C        0.5625        0.595238        0.48905109489051096        0        
C4        C        0.604167        0.595238        0.48905109489051096        0        
C4        C        0.645833        0.595238        0.48905109489051096        0        
C4        C        0.6875        0.595238        0.48905109489051096        0        
C4        C        0.729167        0.595238        0.48905109489051096        0        
C4        C        0.770833        0.595238        0.48905109489051096        0        
C4        C        0.8125        0.595238        0.48905109489051096        0        
C4        C        0.854167        0.595238        0.48905109489051096        0        
C4        C        0.895833        0.595238        0.48905109489051096        0        
C4        C        0.9375        0.595238        0.48905109489051096        0        
C4        C        0.979167        0.595238        0.48905109489051096        0        
C1        C        0.0        0.654762        0.48905109489051096        0        
C1        C        0.041667        0.654762        0.48905109489051096        0        
C1        C        0.083333        0.654762        0.48905109489051096        0        
C1        C        0.125        0.654762        0.48905109489051096        0        
C1        C        0.166667        0.654762        0.48905109489051096        0        
C1        C        0.208333        0.654762        0.48905109489051096        0        
C1        C        0.25        0.654762        0.48905109489051096        0        
C1        C        0.291667        0.654762        0.48905109489051096        0        
C1        C        0.333333        0.654762        0.48905109489051096        0        
C1        C        0.375        0.654762        0.48905109489051096        0        
C1        C        0.416667        0.654762        0.48905109489051096        0        
C1        C        0.458333        0.654762        0.48905109489051096        0        
C1        C        0.5        0.654762        0.48905109489051096        0        
C1        C        0.541667        0.654762        0.48905109489051096        0        
C1        C        0.583333        0.654762        0.48905109489051096        0        
C1        C        0.625        0.654762        0.48905109489051096        0        
C1        C        0.666667        0.654762        0.48905109489051096        0        
C1        C        0.708333        0.654762        0.48905109489051096        0        
C1        C        0.75        0.654762        0.48905109489051096        0        
C1        C        0.791667        0.654762        0.48905109489051096        0        
C1        C        0.833333        0.654762        0.48905109489051096        0        
C1        C        0.875        0.654762        0.48905109489051096        0        
C1        C        0.916667        0.654762        0.48905109489051096        0        
C1        C        0.958333        0.654762        0.48905109489051096        0        
C2        C        0.020833        0.690476        0.48905109489051096        0        
C2        C        0.0625        0.690476        0.48905109489051096        0        
C2        C        0.104167        0.690476        0.48905109489051096        0        
C2        C        0.145833        0.690476        0.48905109489051096        0        
C2        C        0.1875        0.690476        0.48905109489051096        0        
C2        C        0.229167        0.690476        0.48905109489051096        0        
C2        C        0.270833        0.690476        0.48905109489051096        0        
C2        C        0.3125        0.690476        0.48905109489051096        0        
C2        C        0.354167        0.690476        0.48905109489051096        0        
C2        C        0.395833        0.690476        0.48905109489051096        0        
C2        C        0.4375        0.690476        0.48905109489051096        0        
C2        C        0.479167        0.690476        0.48905109489051096        0        
C2        C        0.520833        0.690476        0.48905109489051096        0        
C2        C        0.5625        0.690476        0.48905109489051096        0        
C2        C        0.604167        0.690476        0.48905109489051096        0        
C2        C        0.645833        0.690476        0.48905109489051096        0        
C2        C        0.6875        0.690476        0.48905109489051096        0        
C2        C        0.729167        0.690476        0.48905109489051096        0        
C2        C        0.770833        0.690476        0.48905109489051096        0        
C2        C        0.8125        0.690476        0.48905109489051096        0        
C2        C        0.854167        0.690476        0.48905109489051096        0        
C2        C        0.895833        0.690476        0.48905109489051096        0        
C2        C        0.9375        0.690476        0.48905109489051096        0        
C2        C        0.979167        0.690476        0.48905109489051096        0        
C3        C        0.0        0.702381        0.48905109489051096        0        
C3        C        0.041667        0.702381        0.48905109489051096        0        
C3        C        0.083333        0.702381        0.48905109489051096        0        
C3        C        0.125        0.702381        0.48905109489051096        0        
C3        C        0.166667        0.702381        0.48905109489051096        0        
C3        C        0.208333        0.702381        0.48905109489051096        0        
C3        C        0.25        0.702381        0.48905109489051096        0        
C3        C        0.291667        0.702381        0.48905109489051096        0        
C3        C        0.333333        0.702381        0.48905109489051096        0        
C3        C        0.375        0.702381        0.48905109489051096        0        
C3        C        0.416667        0.702381        0.48905109489051096        0        
C3        C        0.458333        0.702381        0.48905109489051096        0        
C3        C        0.5        0.702381        0.48905109489051096        0        
C3        C        0.541667        0.702381        0.48905109489051096        0        
C3        C        0.583333        0.702381        0.48905109489051096        0        
C3        C        0.625        0.702381        0.48905109489051096        0        
C3        C        0.666667        0.702381        0.48905109489051096        0        
C3        C        0.708333        0.702381        0.48905109489051096        0        
C3        C        0.75        0.702381        0.48905109489051096        0        
C3        C        0.791667        0.702381        0.48905109489051096        0        
C3        C        0.833333        0.702381        0.48905109489051096        0        
C3        C        0.875        0.702381        0.48905109489051096        0        
C3        C        0.916667        0.702381        0.48905109489051096        0        
C3        C        0.958333        0.702381        0.48905109489051096        0        
C4        C        0.020833        0.666666        0.48905109489051096        0        
C4        C        0.0625        0.666666        0.48905109489051096        0        
C4        C        0.104167        0.666666        0.48905109489051096        0        
C4        C        0.145833        0.666666        0.48905109489051096        0        
C4        C        0.1875        0.666666        0.48905109489051096        0        
C4        C        0.229167        0.666666        0.48905109489051096        0        
C4        C        0.270833        0.666666        0.48905109489051096        0        
C4        C        0.3125        0.666666        0.48905109489051096        0        
C4        C        0.354167        0.666666        0.48905109489051096        0        
C4        C        0.395833        0.666666        0.48905109489051096        0        
C4        C        0.4375        0.666666        0.48905109489051096        0        
C4        C        0.479167        0.666666        0.48905109489051096        0        
C4        C        0.520833        0.666666        0.48905109489051096        0        
C4        C        0.5625        0.666666        0.48905109489051096        0        
C4        C        0.604167        0.666666        0.48905109489051096        0        
C4        C        0.645833        0.666666        0.48905109489051096        0        
C4        C        0.6875        0.666666        0.48905109489051096        0        
C4        C        0.729167        0.666666        0.48905109489051096        0        
C4        C        0.770833        0.666666        0.48905109489051096        0        
C4        C        0.8125        0.666666        0.48905109489051096        0        
C4        C        0.854167        0.666666        0.48905109489051096        0        
C4        C        0.895833        0.666666        0.48905109489051096        0        
C4        C        0.9375        0.666666        0.48905109489051096        0        
C4        C        0.979167        0.666666        0.48905109489051096        0        
C1        C        0.0        0.726191        0.48905109489051096        0        
C1        C        0.041667        0.726191        0.48905109489051096        0        
C1        C        0.083333        0.726191        0.48905109489051096        0        
C1        C        0.125        0.726191        0.48905109489051096        0        
C1        C        0.166667        0.726191        0.48905109489051096        0        
C1        C        0.208333        0.726191        0.48905109489051096        0        
C1        C        0.25        0.726191        0.48905109489051096        0        
C1        C        0.291667        0.726191        0.48905109489051096        0        
C1        C        0.333333        0.726191        0.48905109489051096        0        
C1        C        0.375        0.726191        0.48905109489051096        0        
C1        C        0.416667        0.726191        0.48905109489051096        0        
C1        C        0.458333        0.726191        0.48905109489051096        0        
C1        C        0.5        0.726191        0.48905109489051096        0        
C1        C        0.541667        0.726191        0.48905109489051096        0        
C1        C        0.583333        0.726191        0.48905109489051096        0        
C1        C        0.625        0.726191        0.48905109489051096        0        
C1        C        0.666667        0.726191        0.48905109489051096        0        
C1        C        0.708333        0.726191        0.48905109489051096        0        
C1        C        0.75        0.726191        0.48905109489051096        0        
C1        C        0.791667        0.726191        0.48905109489051096        0        
C1        C        0.833333        0.726191        0.48905109489051096        0        
C1        C        0.875        0.726191        0.48905109489051096        0        
C1        C        0.916667        0.726191        0.48905109489051096        0        
C1        C        0.958333        0.726191        0.48905109489051096        0        
C2        C        0.020833        0.761905        0.48905109489051096        0        
C2        C        0.0625        0.761905        0.48905109489051096        0        
C2        C        0.104167        0.761905        0.48905109489051096        0        
C2        C        0.145833        0.761905        0.48905109489051096        0        
C2        C        0.1875        0.761905        0.48905109489051096        0        
C2        C        0.229167        0.761905        0.48905109489051096        0        
C2        C        0.270833        0.761905        0.48905109489051096        0        
C2        C        0.3125        0.761905        0.48905109489051096        0        
C2        C        0.354167        0.761905        0.48905109489051096        0        
C2        C        0.395833        0.761905        0.48905109489051096        0        
C2        C        0.4375        0.761905        0.48905109489051096        0        
C2        C        0.479167        0.761905        0.48905109489051096        0        
C2        C        0.520833        0.761905        0.48905109489051096        0        
C2        C        0.5625        0.761905        0.48905109489051096        0        
C2        C        0.604167        0.761905        0.48905109489051096        0        
C2        C        0.645833        0.761905        0.48905109489051096        0        
C2        C        0.6875        0.761905        0.48905109489051096        0        
C2        C        0.729167        0.761905        0.48905109489051096        0        
C2        C        0.770833        0.761905        0.48905109489051096        0        
C2        C        0.8125        0.761905        0.48905109489051096        0        
C2        C        0.854167        0.761905        0.48905109489051096        0        
C2        C        0.895833        0.761905        0.48905109489051096        0        
C2        C        0.9375        0.761905        0.48905109489051096        0        
C2        C        0.979167        0.761905        0.48905109489051096        0        
C3        C        0.0        0.773809        0.48905109489051096        0        
C3        C        0.041667        0.773809        0.48905109489051096        0        
C3        C        0.083333        0.773809        0.48905109489051096        0        
C3        C        0.125        0.773809        0.48905109489051096        0        
C3        C        0.166667        0.773809        0.48905109489051096        0        
C3        C        0.208333        0.773809        0.48905109489051096        0        
C3        C        0.25        0.773809        0.48905109489051096        0        
C3        C        0.291667        0.773809        0.48905109489051096        0        
C3        C        0.333333        0.773809        0.48905109489051096        0        
C3        C        0.375        0.773809        0.48905109489051096        0        
C3        C        0.416667        0.773809        0.48905109489051096        0        
C3        C        0.458333        0.773809        0.48905109489051096        0        
C3        C        0.5        0.773809        0.48905109489051096        0        
C3        C        0.541667        0.773809        0.48905109489051096        0        
C3        C        0.583333        0.773809        0.48905109489051096        0        
C3        C        0.625        0.773809        0.48905109489051096        0        
C3        C        0.666667        0.773809        0.48905109489051096        0        
C3        C        0.708333        0.773809        0.48905109489051096        0        
C3        C        0.75        0.773809        0.48905109489051096        0        
C3        C        0.791667        0.773809        0.48905109489051096        0        
C3        C        0.833333        0.773809        0.48905109489051096        0        
C3        C        0.875        0.773809        0.48905109489051096        0        
C3        C        0.916667        0.773809        0.48905109489051096        0        
C3        C        0.958333        0.773809        0.48905109489051096        0        
C4        C        0.020833        0.738095        0.48905109489051096        0        
C4        C        0.0625        0.738095        0.48905109489051096        0        
C4        C        0.104167        0.738095        0.48905109489051096        0        
C4        C        0.145833        0.738095        0.48905109489051096        0        
C4        C        0.1875        0.738095        0.48905109489051096        0        
C4        C        0.229167        0.738095        0.48905109489051096        0        
C4        C        0.270833        0.738095        0.48905109489051096        0        
C4        C        0.3125        0.738095        0.48905109489051096        0        
C4        C        0.354167        0.738095        0.48905109489051096        0        
C4        C        0.395833        0.738095        0.48905109489051096        0        
C4        C        0.4375        0.738095        0.48905109489051096        0        
C4        C        0.479167        0.738095        0.48905109489051096        0        
C4        C        0.520833        0.738095        0.48905109489051096        0        
C4        C        0.5625        0.738095        0.48905109489051096        0        
C4        C        0.604167        0.738095        0.48905109489051096        0        
C4        C        0.645833        0.738095        0.48905109489051096        0        
C4        C        0.6875        0.738095        0.48905109489051096        0        
C4        C        0.729167        0.738095        0.48905109489051096        0        
C4        C        0.770833        0.738095        0.48905109489051096        0        
C4        C        0.8125        0.738095        0.48905109489051096        0        
C4        C        0.854167        0.738095        0.48905109489051096        0        
C4        C        0.895833        0.738095        0.48905109489051096        0        
C4        C        0.9375        0.738095        0.48905109489051096        0        
C4        C        0.979167        0.738095        0.48905109489051096        0        
C1        C        0.0        0.79762        0.48905109489051096        0        
C1        C        0.041667        0.79762        0.48905109489051096        0        
C1        C        0.083333        0.79762        0.48905109489051096        0        
C1        C        0.125        0.79762        0.48905109489051096        0        
C1        C        0.166667        0.79762        0.48905109489051096        0        
C1        C        0.208333        0.79762        0.48905109489051096        0        
C1        C        0.25        0.79762        0.48905109489051096        0        
C1        C        0.291667        0.79762        0.48905109489051096        0        
C1        C        0.333333        0.79762        0.48905109489051096        0        
C1        C        0.375        0.79762        0.48905109489051096        0        
C1        C        0.416667        0.79762        0.48905109489051096        0        
C1        C        0.458333        0.79762        0.48905109489051096        0        
C1        C        0.5        0.79762        0.48905109489051096        0        
C1        C        0.541667        0.79762        0.48905109489051096        0        
C1        C        0.583333        0.79762        0.48905109489051096        0        
C1        C        0.625        0.79762        0.48905109489051096        0        
C1        C        0.666667        0.79762        0.48905109489051096        0        
C1        C        0.708333        0.79762        0.48905109489051096        0        
C1        C        0.75        0.79762        0.48905109489051096        0        
C1        C        0.791667        0.79762        0.48905109489051096        0        
C1        C        0.833333        0.79762        0.48905109489051096        0        
C1        C        0.875        0.79762        0.48905109489051096        0        
C1        C        0.916667        0.79762        0.48905109489051096        0        
C1        C        0.958333        0.79762        0.48905109489051096        0        
C2        C        0.020833        0.833334        0.48905109489051096        0        
C2        C        0.0625        0.833334        0.48905109489051096        0        
C2        C        0.104167        0.833334        0.48905109489051096        0        
C2        C        0.145833        0.833334        0.48905109489051096        0        
C2        C        0.1875        0.833334        0.48905109489051096        0        
C2        C        0.229167        0.833334        0.48905109489051096        0        
C2        C        0.270833        0.833334        0.48905109489051096        0        
C2        C        0.3125        0.833334        0.48905109489051096        0        
C2        C        0.354167        0.833334        0.48905109489051096        0        
C2        C        0.395833        0.833334        0.48905109489051096        0        
C2        C        0.4375        0.833334        0.48905109489051096        0        
C2        C        0.479167        0.833334        0.48905109489051096        0        
C2        C        0.520833        0.833334        0.48905109489051096        0        
C2        C        0.5625        0.833334        0.48905109489051096        0        
C2        C        0.604167        0.833334        0.48905109489051096        0        
C2        C        0.645833        0.833334        0.48905109489051096        0        
C2        C        0.6875        0.833334        0.48905109489051096        0        
C2        C        0.729167        0.833334        0.48905109489051096        0        
C2        C        0.770833        0.833334        0.48905109489051096        0        
C2        C        0.8125        0.833334        0.48905109489051096        0        
C2        C        0.854167        0.833334        0.48905109489051096        0        
C2        C        0.895833        0.833334        0.48905109489051096        0        
C2        C        0.9375        0.833334        0.48905109489051096        0        
C2        C        0.979167        0.833334        0.48905109489051096        0        
C3        C        0.0        0.845238        0.48905109489051096        0        
C3        C        0.041667        0.845238        0.48905109489051096        0        
C3        C        0.083333        0.845238        0.48905109489051096        0        
C3        C        0.125        0.845238        0.48905109489051096        0        
C3        C        0.166667        0.845238        0.48905109489051096        0        
C3        C        0.208333        0.845238        0.48905109489051096        0        
C3        C        0.25        0.845238        0.48905109489051096        0        
C3        C        0.291667        0.845238        0.48905109489051096        0        
C3        C        0.333333        0.845238        0.48905109489051096        0        
C3        C        0.375        0.845238        0.48905109489051096        0        
C3        C        0.416667        0.845238        0.48905109489051096        0        
C3        C        0.458333        0.845238        0.48905109489051096        0        
C3        C        0.5        0.845238        0.48905109489051096        0        
C3        C        0.541667        0.845238        0.48905109489051096        0        
C3        C        0.583333        0.845238        0.48905109489051096        0        
C3        C        0.625        0.845238        0.48905109489051096        0        
C3        C        0.666667        0.845238        0.48905109489051096        0        
C3        C        0.708333        0.845238        0.48905109489051096        0        
C3        C        0.75        0.845238        0.48905109489051096        0        
C3        C        0.791667        0.845238        0.48905109489051096        0        
C3        C        0.833333        0.845238        0.48905109489051096        0        
C3        C        0.875        0.845238        0.48905109489051096        0        
C3        C        0.916667        0.845238        0.48905109489051096        0        
C3        C        0.958333        0.845238        0.48905109489051096        0        
C4        C        0.020833        0.809524        0.48905109489051096        0        
C4        C        0.0625        0.809524        0.48905109489051096        0        
C4        C        0.104167        0.809524        0.48905109489051096        0        
C4        C        0.145833        0.809524        0.48905109489051096        0        
C4        C        0.1875        0.809524        0.48905109489051096        0        
C4        C        0.229167        0.809524        0.48905109489051096        0        
C4        C        0.270833        0.809524        0.48905109489051096        0        
C4        C        0.3125        0.809524        0.48905109489051096        0        
C4        C        0.354167        0.809524        0.48905109489051096        0        
C4        C        0.395833        0.809524        0.48905109489051096        0        
C4        C        0.4375        0.809524        0.48905109489051096        0        
C4        C        0.479167        0.809524        0.48905109489051096        0        
C4        C        0.520833        0.809524        0.48905109489051096        0        
C4        C        0.5625        0.809524        0.48905109489051096        0        
C4        C        0.604167        0.809524        0.48905109489051096        0        
C4        C        0.645833        0.809524        0.48905109489051096        0        
C4        C        0.6875        0.809524        0.48905109489051096        0        
C4        C        0.729167        0.809524        0.48905109489051096        0        
C4        C        0.770833        0.809524        0.48905109489051096        0        
C4        C        0.8125        0.809524        0.48905109489051096        0        
C4        C        0.854167        0.809524        0.48905109489051096        0        
C4        C        0.895833        0.809524        0.48905109489051096        0        
C4        C        0.9375        0.809524        0.48905109489051096        0        
C4        C        0.979167        0.809524        0.48905109489051096        0        
C1        C        0.0        0.869048        0.48905109489051096        0        
C1        C        0.041667        0.869048        0.48905109489051096        0        
C1        C        0.083333        0.869048        0.48905109489051096        0        
C1        C        0.125        0.869048        0.48905109489051096        0        
C1        C        0.166667        0.869048        0.48905109489051096        0        
C1        C        0.208333        0.869048        0.48905109489051096        0        
C1        C        0.25        0.869048        0.48905109489051096        0        
C1        C        0.291667        0.869048        0.48905109489051096        0        
C1        C        0.333333        0.869048        0.48905109489051096        0        
C1        C        0.375        0.869048        0.48905109489051096        0        
C1        C        0.416667        0.869048        0.48905109489051096        0        
C1        C        0.458333        0.869048        0.48905109489051096        0        
C1        C        0.5        0.869048        0.48905109489051096        0        
C1        C        0.541667        0.869048        0.48905109489051096        0        
C1        C        0.583333        0.869048        0.48905109489051096        0        
C1        C        0.625        0.869048        0.48905109489051096        0        
C1        C        0.666667        0.869048        0.48905109489051096        0        
C1        C        0.708333        0.869048        0.48905109489051096        0        
C1        C        0.75        0.869048        0.48905109489051096        0        
C1        C        0.791667        0.869048        0.48905109489051096        0        
C1        C        0.833333        0.869048        0.48905109489051096        0        
C1        C        0.875        0.869048        0.48905109489051096        0        
C1        C        0.916667        0.869048        0.48905109489051096        0        
C1        C        0.958333        0.869048        0.48905109489051096        0        
C2        C        0.020833        0.904762        0.48905109489051096        0        
C2        C        0.0625        0.904762        0.48905109489051096        0        
C2        C        0.104167        0.904762        0.48905109489051096        0        
C2        C        0.145833        0.904762        0.48905109489051096        0        
C2        C        0.1875        0.904762        0.48905109489051096        0        
C2        C        0.229167        0.904762        0.48905109489051096        0        
C2        C        0.270833        0.904762        0.48905109489051096        0        
C2        C        0.3125        0.904762        0.48905109489051096        0        
C2        C        0.354167        0.904762        0.48905109489051096        0        
C2        C        0.395833        0.904762        0.48905109489051096        0        
C2        C        0.4375        0.904762        0.48905109489051096        0        
C2        C        0.479167        0.904762        0.48905109489051096        0        
C2        C        0.520833        0.904762        0.48905109489051096        0        
C2        C        0.5625        0.904762        0.48905109489051096        0        
C2        C        0.604167        0.904762        0.48905109489051096        0        
C2        C        0.645833        0.904762        0.48905109489051096        0        
C2        C        0.6875        0.904762        0.48905109489051096        0        
C2        C        0.729167        0.904762        0.48905109489051096        0        
C2        C        0.770833        0.904762        0.48905109489051096        0        
C2        C        0.8125        0.904762        0.48905109489051096        0        
C2        C        0.854167        0.904762        0.48905109489051096        0        
C2        C        0.895833        0.904762        0.48905109489051096        0        
C2        C        0.9375        0.904762        0.48905109489051096        0        
C2        C        0.979167        0.904762        0.48905109489051096        0        
C3        C        0.0        0.916667        0.48905109489051096        0        
C3        C        0.041667        0.916667        0.48905109489051096        0        
C3        C        0.083333        0.916667        0.48905109489051096        0        
C3        C        0.125        0.916667        0.48905109489051096        0        
C3        C        0.166667        0.916667        0.48905109489051096        0        
C3        C        0.208333        0.916667        0.48905109489051096        0        
C3        C        0.25        0.916667        0.48905109489051096        0        
C3        C        0.291667        0.916667        0.48905109489051096        0        
C3        C        0.333333        0.916667        0.48905109489051096        0        
C3        C        0.375        0.916667        0.48905109489051096        0        
C3        C        0.416667        0.916667        0.48905109489051096        0        
C3        C        0.458333        0.916667        0.48905109489051096        0        
C3        C        0.5        0.916667        0.48905109489051096        0        
C3        C        0.541667        0.916667        0.48905109489051096        0        
C3        C        0.583333        0.916667        0.48905109489051096        0        
C3        C        0.625        0.916667        0.48905109489051096        0        
C3        C        0.666667        0.916667        0.48905109489051096        0        
C3        C        0.708333        0.916667        0.48905109489051096        0        
C3        C        0.75        0.916667        0.48905109489051096        0        
C3        C        0.791667        0.916667        0.48905109489051096        0        
C3        C        0.833333        0.916667        0.48905109489051096        0        
C3        C        0.875        0.916667        0.48905109489051096        0        
C3        C        0.916667        0.916667        0.48905109489051096        0        
C3        C        0.958333        0.916667        0.48905109489051096        0        
C4        C        0.020833        0.880952        0.48905109489051096        0        
C4        C        0.0625        0.880952        0.48905109489051096        0        
C4        C        0.104167        0.880952        0.48905109489051096        0        
C4        C        0.145833        0.880952        0.48905109489051096        0        
C4        C        0.1875        0.880952        0.48905109489051096        0        
C4        C        0.229167        0.880952        0.48905109489051096        0        
C4        C        0.270833        0.880952        0.48905109489051096        0        
C4        C        0.3125        0.880952        0.48905109489051096        0        
C4        C        0.354167        0.880952        0.48905109489051096        0        
C4        C        0.395833        0.880952        0.48905109489051096        0        
C4        C        0.4375        0.880952        0.48905109489051096        0        
C4        C        0.479167        0.880952        0.48905109489051096        0        
C4        C        0.520833        0.880952        0.48905109489051096        0        
C4        C        0.5625        0.880952        0.48905109489051096        0        
C4        C        0.604167        0.880952        0.48905109489051096        0        
C4        C        0.645833        0.880952        0.48905109489051096        0        
C4        C        0.6875        0.880952        0.48905109489051096        0        
C4        C        0.729167        0.880952        0.48905109489051096        0        
C4        C        0.770833        0.880952        0.48905109489051096        0        
C4        C        0.8125        0.880952        0.48905109489051096        0        
C4        C        0.854167        0.880952        0.48905109489051096        0        
C4        C        0.895833        0.880952        0.48905109489051096        0        
C4        C        0.9375        0.880952        0.48905109489051096        0        
C4        C        0.979167        0.880952        0.48905109489051096        0        
C1        C        0.0        0.940477        0.48905109489051096        0        
C1        C        0.041667        0.940477        0.48905109489051096        0        
C1        C        0.083333        0.940477        0.48905109489051096        0        
C1        C        0.125        0.940477        0.48905109489051096        0        
C1        C        0.166667        0.940477        0.48905109489051096        0        
C1        C        0.208333        0.940477        0.48905109489051096        0        
C1        C        0.25        0.940477        0.48905109489051096        0        
C1        C        0.291667        0.940477        0.48905109489051096        0        
C1        C        0.333333        0.940477        0.48905109489051096        0        
C1        C        0.375        0.940477        0.48905109489051096        0        
C1        C        0.416667        0.940477        0.48905109489051096        0        
C1        C        0.458333        0.940477        0.48905109489051096        0        
C1        C        0.5        0.940477        0.48905109489051096        0        
C1        C        0.541667        0.940477        0.48905109489051096        0        
C1        C        0.583333        0.940477        0.48905109489051096        0        
C1        C        0.625        0.940477        0.48905109489051096        0        
C1        C        0.666667        0.940477        0.48905109489051096        0        
C1        C        0.708333        0.940477        0.48905109489051096        0        
C1        C        0.75        0.940477        0.48905109489051096        0        
C1        C        0.791667        0.940477        0.48905109489051096        0        
C1        C        0.833333        0.940477        0.48905109489051096        0        
C1        C        0.875        0.940477        0.48905109489051096        0        
C1        C        0.916667        0.940477        0.48905109489051096        0        
C1        C        0.958333        0.940477        0.48905109489051096        0        
C2        C        0.020833        0.976191        0.48905109489051096        0        
C2        C        0.0625        0.976191        0.48905109489051096        0        
C2        C        0.104167        0.976191        0.48905109489051096        0        
C2        C        0.145833        0.976191        0.48905109489051096        0        
C2        C        0.1875        0.976191        0.48905109489051096        0        
C2        C        0.229167        0.976191        0.48905109489051096        0        
C2        C        0.270833        0.976191        0.48905109489051096        0        
C2        C        0.3125        0.976191        0.48905109489051096        0        
C2        C        0.354167        0.976191        0.48905109489051096        0        
C2        C        0.395833        0.976191        0.48905109489051096        0        
C2        C        0.4375        0.976191        0.48905109489051096        0        
C2        C        0.479167        0.976191        0.48905109489051096        0        
C2        C        0.520833        0.976191        0.48905109489051096        0        
C2        C        0.5625        0.976191        0.48905109489051096        0        
C2        C        0.604167        0.976191        0.48905109489051096        0        
C2        C        0.645833        0.976191        0.48905109489051096        0        
C2        C        0.6875        0.976191        0.48905109489051096        0        
C2        C        0.729167        0.976191        0.48905109489051096        0        
C2        C        0.770833        0.976191        0.48905109489051096        0        
C2        C        0.8125        0.976191        0.48905109489051096        0        
C2        C        0.854167        0.976191        0.48905109489051096        0        
C2        C        0.895833        0.976191        0.48905109489051096        0        
C2        C        0.9375        0.976191        0.48905109489051096        0        
C2        C        0.979167        0.976191        0.48905109489051096        0        
C3        C        0.0        0.988095        0.48905109489051096        0        
C3        C        0.041667        0.988095        0.48905109489051096        0        
C3        C        0.083333        0.988095        0.48905109489051096        0        
C3        C        0.125        0.988095        0.48905109489051096        0        
C3        C        0.166667        0.988095        0.48905109489051096        0        
C3        C        0.208333        0.988095        0.48905109489051096        0        
C3        C        0.25        0.988095        0.48905109489051096        0        
C3        C        0.291667        0.988095        0.48905109489051096        0        
C3        C        0.333333        0.988095        0.48905109489051096        0        
C3        C        0.375        0.988095        0.48905109489051096        0        
C3        C        0.416667        0.988095        0.48905109489051096        0        
C3        C        0.458333        0.988095        0.48905109489051096        0        
C3        C        0.5        0.988095        0.48905109489051096        0        
C3        C        0.541667        0.988095        0.48905109489051096        0        
C3        C        0.583333        0.988095        0.48905109489051096        0        
C3        C        0.625        0.988095        0.48905109489051096        0        
C3        C        0.666667        0.988095        0.48905109489051096        0        
C3        C        0.708333        0.988095        0.48905109489051096        0        
C3        C        0.75        0.988095        0.48905109489051096        0        
C3        C        0.791667        0.988095        0.48905109489051096        0        
C3        C        0.833333        0.988095        0.48905109489051096        0        
C3        C        0.875        0.988095        0.48905109489051096        0        
C3        C        0.916667        0.988095        0.48905109489051096        0        
C3        C        0.958333        0.988095        0.48905109489051096        0        
C4        C        0.020833        0.952381        0.48905109489051096        0        
C4        C        0.0625        0.952381        0.48905109489051096        0        
C4        C        0.104167        0.952381        0.48905109489051096        0        
C4        C        0.145833        0.952381        0.48905109489051096        0        
C4        C        0.1875        0.952381        0.48905109489051096        0        
C4        C        0.229167        0.952381        0.48905109489051096        0        
C4        C        0.270833        0.952381        0.48905109489051096        0        
C4        C        0.3125        0.952381        0.48905109489051096        0        
C4        C        0.354167        0.952381        0.48905109489051096        0        
C4        C        0.395833        0.952381        0.48905109489051096        0        
C4        C        0.4375        0.952381        0.48905109489051096        0        
C4        C        0.479167        0.952381        0.48905109489051096        0        
C4        C        0.520833        0.952381        0.48905109489051096        0        
C4        C        0.5625        0.952381        0.48905109489051096        0        
C4        C        0.604167        0.952381        0.48905109489051096        0        
C4        C        0.645833        0.952381        0.48905109489051096        0        
C4        C        0.6875        0.952381        0.48905109489051096        0        
C4        C        0.729167        0.952381        0.48905109489051096        0        
C4        C        0.770833        0.952381        0.48905109489051096        0        
C4        C        0.8125        0.952381        0.48905109489051096        0        
C4        C        0.854167        0.952381        0.48905109489051096        0        
C4        C        0.895833        0.952381        0.48905109489051096        0        
C4        C        0.9375        0.952381        0.48905109489051096        0        
C4        C        0.979167        0.952381        0.48905109489051096        0        
