data_graphite_ortho

_audit_creation_method RASPA-1.0
_audit_creation_date 2012-2-3
_audit_author_name 'David Dubbeldam'

_cell_length_a    39.36    
_cell_length_b    38.339999999999996    
_cell_length_c    13.7    
_cell_angle_alpha 90
_cell_angle_beta  90
_cell_angle_gamma 90
_cell_volume      20674.15      

_symmetry_cell_setting          triclinic
_symmetry_space_group_name_Hall 'P 1'
_symmetry_space_group_name_H-M  'P 1'
_symmetry_Int_Tables_number     1

_symmetry_equiv_pos_as_xyz 'x,y,z'

loop_
_atom_site_label
_atom_site_type_symbol
_atom_site_fract_x
_atom_site_fract_y
_atom_site_fract_z
_atom_site_charge
C_FG        C        0.0        0.018519        0.12913861313868613        0.2        
C2        C        0.03125        0.074075        0.12913861313868613        0        
C3        C        0.0        0.092592        0.12913861313868613        0        
C4        C        0.03125        0.037037        0.12913861313868613        0        
C_FG        C        0.0        0.12963        0.12913861313868613        0.2        
C2        C        0.03125        0.185185        0.12913861313868613        0        
C3        C        0.0        0.203703        0.12913861313868613        0        
C4        C        0.03125        0.148148        0.12913861313868613        0        
C_FG        C        0.0        0.24074099999999998        0.12913861313868613        0.2        
C2        C        0.03125        0.296297        0.12913861313868613        0        
C3        C        0.0        0.314815        0.12913861313868613        0        
C4        C        0.03125        0.259259        0.12913861313868613        0        
C_FG        C        0.0        0.351852        0.12913861313868613        0.2        
C2        C        0.03125        0.407408        0.12913861313868613        0        
C3        C        0.0        0.425925        0.12913861313868613        0        
C4        C        0.03125        0.37037        0.12913861313868613        0        
C_FG        C        0.0        0.46296300000000007        0.12913861313868613        0.2        
C2        C        0.03125        0.518519        0.12913861313868613        0        
C3        C        0.0        0.537037        0.12913861313868613        0        
C4        C        0.03125        0.481481        0.12913861313868613        0        
C_FG        C        0.0        0.574075        0.12913861313868613        0.2        
C2        C        0.03125        0.62963        0.12913861313868613        0        
C3        C        0.0        0.648148        0.12913861313868613        0        
C4        C        0.03125        0.592592        0.12913861313868613        0        
C1        C        0.0625        0.018519        0.12913861313868613        0        
C2        C        0.09375        0.074075        0.12913861313868613        0        
C3        C        0.0625        0.092592        0.12913861313868613        0        
C4        C        0.09375        0.037037        0.12913861313868613        0        
C1        C        0.0625        0.12963        0.12913861313868613        0        
C2        C        0.09375        0.185185        0.12913861313868613        0        
C3        C        0.0625        0.203703        0.12913861313868613        0        
C4        C        0.09375        0.148148        0.12913861313868613        0        
C1        C        0.0625        0.24074099999999998        0.12913861313868613        0        
C2        C        0.09375        0.296297        0.12913861313868613        0        
C3        C        0.0625        0.314815        0.12913861313868613        0        
C4        C        0.09375        0.259259        0.12913861313868613        0        
C1        C        0.0625        0.351852        0.12913861313868613        0        
C2        C        0.09375        0.407408        0.12913861313868613        0        
C3        C        0.0625        0.425925        0.12913861313868613        0        
C4        C        0.09375        0.37037        0.12913861313868613        0        
C1        C        0.0625        0.46296300000000007        0.12913861313868613        0        
C2        C        0.09375        0.518519        0.12913861313868613        0        
C3        C        0.0625        0.537037        0.12913861313868613        0        
C4        C        0.09375        0.481481        0.12913861313868613        0        
C1        C        0.0625        0.574075        0.12913861313868613        0        
C2        C        0.09375        0.62963        0.12913861313868613        0        
C3        C        0.0625        0.648148        0.12913861313868613        0        
C4        C        0.09375        0.592592        0.12913861313868613        0        
C_FG        C        0.125        0.018519        0.12913861313868613        0.2        
C2        C        0.15625        0.074075        0.12913861313868613        0        
C3        C        0.125        0.092592        0.12913861313868613        0        
C4        C        0.15625        0.037037        0.12913861313868613        0        
C_FG        C        0.125        0.12963        0.12913861313868613        0.2        
C2        C        0.15625        0.185185        0.12913861313868613        0        
C3        C        0.125        0.203703        0.12913861313868613        0        
C4        C        0.15625        0.148148        0.12913861313868613        0        
C_FG        C        0.125        0.24074099999999998        0.12913861313868613        0.2        
C2        C        0.15625        0.296297        0.12913861313868613        0        
C3        C        0.125        0.314815        0.12913861313868613        0        
C4        C        0.15625        0.259259        0.12913861313868613        0        
C_FG        C        0.125        0.351852        0.12913861313868613        0.2        
C2        C        0.15625        0.407408        0.12913861313868613        0        
C3        C        0.125        0.425925        0.12913861313868613        0        
C4        C        0.15625        0.37037        0.12913861313868613        0        
C_FG        C        0.125        0.46296300000000007        0.12913861313868613        0.2        
C2        C        0.15625        0.518519        0.12913861313868613        0        
C3        C        0.125        0.537037        0.12913861313868613        0        
C4        C        0.15625        0.481481        0.12913861313868613        0        
C_FG        C        0.125        0.574075        0.12913861313868613        0.2        
C2        C        0.15625        0.62963        0.12913861313868613        0        
C3        C        0.125        0.648148        0.12913861313868613        0        
C4        C        0.15625        0.592592        0.12913861313868613        0        
C1        C        0.1875        0.018519        0.12913861313868613        0        
C2        C        0.21875        0.074075        0.12913861313868613        0        
C3        C        0.1875        0.092592        0.12913861313868613        0        
C4        C        0.21875        0.037037        0.12913861313868613        0        
C1        C        0.1875        0.12963        0.12913861313868613        0        
C2        C        0.21875        0.185185        0.12913861313868613        0        
C3        C        0.1875        0.203703        0.12913861313868613        0        
C4        C        0.21875        0.148148        0.12913861313868613        0        
C1        C        0.1875        0.24074099999999998        0.12913861313868613        0        
C2        C        0.21875        0.296297        0.12913861313868613        0        
C3        C        0.1875        0.314815        0.12913861313868613        0        
C4        C        0.21875        0.259259        0.12913861313868613        0        
C1        C        0.1875        0.351852        0.12913861313868613        0        
C2        C        0.21875        0.407408        0.12913861313868613        0        
C3        C        0.1875        0.425925        0.12913861313868613        0        
C4        C        0.21875        0.37037        0.12913861313868613        0        
C1        C        0.1875        0.46296300000000007        0.12913861313868613        0        
C2        C        0.21875        0.518519        0.12913861313868613        0        
C3        C        0.1875        0.537037        0.12913861313868613        0        
C4        C        0.21875        0.481481        0.12913861313868613        0        
C1        C        0.1875        0.574075        0.12913861313868613        0        
C2        C        0.21875        0.62963        0.12913861313868613        0        
C3        C        0.1875        0.648148        0.12913861313868613        0        
C4        C        0.21875        0.592592        0.12913861313868613        0        
C_FG        C        0.25        0.018519        0.12913861313868613        0.2        
C2        C        0.28125        0.074075        0.12913861313868613        0        
C3        C        0.25        0.092592        0.12913861313868613        0        
C4        C        0.28125        0.037037        0.12913861313868613        0        
C_FG        C        0.25        0.12963        0.12913861313868613        0.2        
C2        C        0.28125        0.185185        0.12913861313868613        0        
C3        C        0.25        0.203703        0.12913861313868613        0        
C4        C        0.28125        0.148148        0.12913861313868613        0        
C_FG        C        0.25        0.24074099999999998        0.12913861313868613        0.2        
C2        C        0.28125        0.296297        0.12913861313868613        0        
C3        C        0.25        0.314815        0.12913861313868613        0        
C4        C        0.28125        0.259259        0.12913861313868613        0        
C_FG        C        0.25        0.351852        0.12913861313868613        0.2        
C2        C        0.28125        0.407408        0.12913861313868613        0        
C3        C        0.25        0.425925        0.12913861313868613        0        
C4        C        0.28125        0.37037        0.12913861313868613        0        
C_FG        C        0.25        0.46296300000000007        0.12913861313868613        0.2        
C2        C        0.28125        0.518519        0.12913861313868613        0        
C3        C        0.25        0.537037        0.12913861313868613        0        
C4        C        0.28125        0.481481        0.12913861313868613        0        
C_FG        C        0.25        0.574075        0.12913861313868613        0.2        
C2        C        0.28125        0.62963        0.12913861313868613        0        
C3        C        0.25        0.648148        0.12913861313868613        0        
C4        C        0.28125        0.592592        0.12913861313868613        0        
C1        C        0.3125        0.018519        0.12913861313868613        0        
C2        C        0.34375        0.074075        0.12913861313868613        0        
C3        C        0.3125        0.092592        0.12913861313868613        0        
C4        C        0.34375        0.037037        0.12913861313868613        0        
C1        C        0.3125        0.12963        0.12913861313868613        0        
C2        C        0.34375        0.185185        0.12913861313868613        0        
C3        C        0.3125        0.203703        0.12913861313868613        0        
C4        C        0.34375        0.148148        0.12913861313868613        0        
C1        C        0.3125        0.24074099999999998        0.12913861313868613        0        
C2        C        0.34375        0.296297        0.12913861313868613        0        
C3        C        0.3125        0.314815        0.12913861313868613        0        
C4        C        0.34375        0.259259        0.12913861313868613        0        
C1        C        0.3125        0.351852        0.12913861313868613        0        
C2        C        0.34375        0.407408        0.12913861313868613        0        
C3        C        0.3125        0.425925        0.12913861313868613        0        
C4        C        0.34375        0.37037        0.12913861313868613        0        
C1        C        0.3125        0.46296300000000007        0.12913861313868613        0        
C2        C        0.34375        0.518519        0.12913861313868613        0        
C3        C        0.3125        0.537037        0.12913861313868613        0        
C4        C        0.34375        0.481481        0.12913861313868613        0        
C1        C        0.3125        0.574075        0.12913861313868613        0        
C2        C        0.34375        0.62963        0.12913861313868613        0        
C3        C        0.3125        0.648148        0.12913861313868613        0        
C4        C        0.34375        0.592592        0.12913861313868613        0        
C_FG        C        0.375        0.018519        0.12913861313868613        0.2        
C2        C        0.40625        0.074075        0.12913861313868613        0        
C3        C        0.375        0.092592        0.12913861313868613        0        
C4        C        0.40625        0.037037        0.12913861313868613        0        
C_FG        C        0.375        0.12963        0.12913861313868613        0.2        
C2        C        0.40625        0.185185        0.12913861313868613        0        
C3        C        0.375        0.203703        0.12913861313868613        0        
C4        C        0.40625        0.148148        0.12913861313868613        0        
C_FG        C        0.375        0.24074099999999998        0.12913861313868613        0.2        
C2        C        0.40625        0.296297        0.12913861313868613        0        
C3        C        0.375        0.314815        0.12913861313868613        0        
C4        C        0.40625        0.259259        0.12913861313868613        0        
C_FG        C        0.375        0.351852        0.12913861313868613        0.2        
C2        C        0.40625        0.407408        0.12913861313868613        0        
C3        C        0.375        0.425925        0.12913861313868613        0        
C4        C        0.40625        0.37037        0.12913861313868613        0        
C_FG        C        0.375        0.46296300000000007        0.12913861313868613        0.2        
C2        C        0.40625        0.518519        0.12913861313868613        0        
C3        C        0.375        0.537037        0.12913861313868613        0        
C4        C        0.40625        0.481481        0.12913861313868613        0        
C_FG        C        0.375        0.574075        0.12913861313868613        0.2        
C2        C        0.40625        0.62963        0.12913861313868613        0        
C3        C        0.375        0.648148        0.12913861313868613        0        
C4        C        0.40625        0.592592        0.12913861313868613        0        
C1        C        0.4375        0.018519        0.12913861313868613        0        
C2        C        0.46875        0.074075        0.12913861313868613        0        
C3        C        0.4375        0.092592        0.12913861313868613        0        
C4        C        0.46875        0.037037        0.12913861313868613        0        
C1        C        0.4375        0.12963        0.12913861313868613        0        
C2        C        0.46875        0.185185        0.12913861313868613        0        
C3        C        0.4375        0.203703        0.12913861313868613        0        
C4        C        0.46875        0.148148        0.12913861313868613        0        
C1        C        0.4375        0.24074099999999998        0.12913861313868613        0        
C2        C        0.46875        0.296297        0.12913861313868613        0        
C3        C        0.4375        0.314815        0.12913861313868613        0        
C4        C        0.46875        0.259259        0.12913861313868613        0        
C1        C        0.4375        0.351852        0.12913861313868613        0        
C2        C        0.46875        0.407408        0.12913861313868613        0        
C3        C        0.4375        0.425925        0.12913861313868613        0        
C4        C        0.46875        0.37037        0.12913861313868613        0        
C1        C        0.4375        0.46296300000000007        0.12913861313868613        0        
C2        C        0.46875        0.518519        0.12913861313868613        0        
C3        C        0.4375        0.537037        0.12913861313868613        0        
C4        C        0.46875        0.481481        0.12913861313868613        0        
C1        C        0.4375        0.574075        0.12913861313868613        0        
C2        C        0.46875        0.62963        0.12913861313868613        0        
C3        C        0.4375        0.648148        0.12913861313868613        0        
C4        C        0.46875        0.592592        0.12913861313868613        0        
C_FG        C        0.5        0.018519        0.12913861313868613        0.2        
C2        C        0.53125        0.074075        0.12913861313868613        0        
C3        C        0.5        0.092592        0.12913861313868613        0        
C4        C        0.53125        0.037037        0.12913861313868613        0        
C_FG        C        0.5        0.12963        0.12913861313868613        0.2        
C2        C        0.53125        0.185185        0.12913861313868613        0        
C3        C        0.5        0.203703        0.12913861313868613        0        
C4        C        0.53125        0.148148        0.12913861313868613        0        
C_FG        C        0.5        0.24074099999999998        0.12913861313868613        0.2        
C2        C        0.53125        0.296297        0.12913861313868613        0        
C3        C        0.5        0.314815        0.12913861313868613        0        
C4        C        0.53125        0.259259        0.12913861313868613        0        
C_FG        C        0.5        0.351852        0.12913861313868613        0.2        
C2        C        0.53125        0.407408        0.12913861313868613        0        
C3        C        0.5        0.425925        0.12913861313868613        0        
C4        C        0.53125        0.37037        0.12913861313868613        0        
C_FG        C        0.5        0.46296300000000007        0.12913861313868613        0.2        
C2        C        0.53125        0.518519        0.12913861313868613        0        
C3        C        0.5        0.537037        0.12913861313868613        0        
C4        C        0.53125        0.481481        0.12913861313868613        0        
C_FG        C        0.5        0.574075        0.12913861313868613        0.2        
C2        C        0.53125        0.62963        0.12913861313868613        0        
C3        C        0.5        0.648148        0.12913861313868613        0        
C4        C        0.53125        0.592592        0.12913861313868613        0        
C1        C        0.5625        0.018519        0.12913861313868613        0        
C2        C        0.59375        0.074075        0.12913861313868613        0        
C3        C        0.5625        0.092592        0.12913861313868613        0        
C4        C        0.59375        0.037037        0.12913861313868613        0        
C1        C        0.5625        0.12963        0.12913861313868613        0        
C2        C        0.59375        0.185185        0.12913861313868613        0        
C3        C        0.5625        0.203703        0.12913861313868613        0        
C4        C        0.59375        0.148148        0.12913861313868613        0        
C1        C        0.5625        0.24074099999999998        0.12913861313868613        0        
C2        C        0.59375        0.296297        0.12913861313868613        0        
C3        C        0.5625        0.314815        0.12913861313868613        0        
C4        C        0.59375        0.259259        0.12913861313868613        0        
C1        C        0.5625        0.351852        0.12913861313868613        0        
C2        C        0.59375        0.407408        0.12913861313868613        0        
C3        C        0.5625        0.425925        0.12913861313868613        0        
C4        C        0.59375        0.37037        0.12913861313868613        0        
C1        C        0.5625        0.46296300000000007        0.12913861313868613        0        
C2        C        0.59375        0.518519        0.12913861313868613        0        
C3        C        0.5625        0.537037        0.12913861313868613        0        
C4        C        0.59375        0.481481        0.12913861313868613        0        
C1        C        0.5625        0.574075        0.12913861313868613        0        
C2        C        0.59375        0.62963        0.12913861313868613        0        
C3        C        0.5625        0.648148        0.12913861313868613        0        
C4        C        0.59375        0.592592        0.12913861313868613        0        
C_FG        C        0.625        0.018519        0.12913861313868613        0.2        
C2        C        0.65625        0.074075        0.12913861313868613        0        
C3        C        0.625        0.092592        0.12913861313868613        0        
C4        C        0.65625        0.037037        0.12913861313868613        0        
C_FG        C        0.625        0.12963        0.12913861313868613        0.2        
C2        C        0.65625        0.185185        0.12913861313868613        0        
C3        C        0.625        0.203703        0.12913861313868613        0        
C4        C        0.65625        0.148148        0.12913861313868613        0        
C_FG        C        0.625        0.24074099999999998        0.12913861313868613        0.2        
C2        C        0.65625        0.296297        0.12913861313868613        0        
C3        C        0.625        0.314815        0.12913861313868613        0        
C4        C        0.65625        0.259259        0.12913861313868613        0        
C_FG        C        0.625        0.351852        0.12913861313868613        0.2        
C2        C        0.65625        0.407408        0.12913861313868613        0        
C3        C        0.625        0.425925        0.12913861313868613        0        
C4        C        0.65625        0.37037        0.12913861313868613        0        
C_FG        C        0.625        0.46296300000000007        0.12913861313868613        0.2        
C2        C        0.65625        0.518519        0.12913861313868613        0        
C3        C        0.625        0.537037        0.12913861313868613        0        
C4        C        0.65625        0.481481        0.12913861313868613        0        
C_FG        C        0.625        0.574075        0.12913861313868613        0.2        
C2        C        0.65625        0.62963        0.12913861313868613        0        
C3        C        0.625        0.648148        0.12913861313868613        0        
C4        C        0.65625        0.592592        0.12913861313868613        0        
C1        C        0.6875        0.018519        0.12913861313868613        0        
C2        C        0.71875        0.074075        0.12913861313868613        0        
C3        C        0.6875        0.092592        0.12913861313868613        0        
C4        C        0.71875        0.037037        0.12913861313868613        0        
C1        C        0.6875        0.12963        0.12913861313868613        0        
C2        C        0.71875        0.185185        0.12913861313868613        0        
C3        C        0.6875        0.203703        0.12913861313868613        0        
C4        C        0.71875        0.148148        0.12913861313868613        0        
C1        C        0.6875        0.24074099999999998        0.12913861313868613        0        
C2        C        0.71875        0.296297        0.12913861313868613        0        
C3        C        0.6875        0.314815        0.12913861313868613        0        
C4        C        0.71875        0.259259        0.12913861313868613        0        
C1        C        0.6875        0.351852        0.12913861313868613        0        
C2        C        0.71875        0.407408        0.12913861313868613        0        
C3        C        0.6875        0.425925        0.12913861313868613        0        
C4        C        0.71875        0.37037        0.12913861313868613        0        
C1        C        0.6875        0.46296300000000007        0.12913861313868613        0        
C2        C        0.71875        0.518519        0.12913861313868613        0        
C3        C        0.6875        0.537037        0.12913861313868613        0        
C4        C        0.71875        0.481481        0.12913861313868613        0        
C1        C        0.6875        0.574075        0.12913861313868613        0        
C2        C        0.71875        0.62963        0.12913861313868613        0        
C3        C        0.6875        0.648148        0.12913861313868613        0        
C4        C        0.71875        0.592592        0.12913861313868613        0        
C_FG        C        0.75        0.018519        0.12913861313868613        0.2        
C2        C        0.78125        0.074075        0.12913861313868613        0        
C3        C        0.75        0.092592        0.12913861313868613        0        
C4        C        0.78125        0.037037        0.12913861313868613        0        
C_FG        C        0.75        0.12963        0.12913861313868613        0.2        
C2        C        0.78125        0.185185        0.12913861313868613        0        
C3        C        0.75        0.203703        0.12913861313868613        0        
C4        C        0.78125        0.148148        0.12913861313868613        0        
C_FG        C        0.75        0.24074099999999998        0.12913861313868613        0.2        
C2        C        0.78125        0.296297        0.12913861313868613        0        
C3        C        0.75        0.314815        0.12913861313868613        0        
C4        C        0.78125        0.259259        0.12913861313868613        0        
C_FG        C        0.75        0.351852        0.12913861313868613        0.2        
C2        C        0.78125        0.407408        0.12913861313868613        0        
C3        C        0.75        0.425925        0.12913861313868613        0        
C4        C        0.78125        0.37037        0.12913861313868613        0        
C_FG        C        0.75        0.46296300000000007        0.12913861313868613        0.2        
C2        C        0.78125        0.518519        0.12913861313868613        0        
C3        C        0.75        0.537037        0.12913861313868613        0        
C4        C        0.78125        0.481481        0.12913861313868613        0        
C_FG        C        0.75        0.574075        0.12913861313868613        0.2        
C2        C        0.78125        0.62963        0.12913861313868613        0        
C3        C        0.75        0.648148        0.12913861313868613        0        
C4        C        0.78125        0.592592        0.12913861313868613        0        
C1        C        0.8125        0.018519        0.12913861313868613        0        
C2        C        0.84375        0.074075        0.12913861313868613        0        
C3        C        0.8125        0.092592        0.12913861313868613        0        
C4        C        0.84375        0.037037        0.12913861313868613        0        
C1        C        0.8125        0.12963        0.12913861313868613        0        
C2        C        0.84375        0.185185        0.12913861313868613        0        
C3        C        0.8125        0.203703        0.12913861313868613        0        
C4        C        0.84375        0.148148        0.12913861313868613        0        
C1        C        0.8125        0.24074099999999998        0.12913861313868613        0        
C2        C        0.84375        0.296297        0.12913861313868613        0        
C3        C        0.8125        0.314815        0.12913861313868613        0        
C4        C        0.84375        0.259259        0.12913861313868613        0        
C1        C        0.8125        0.351852        0.12913861313868613        0        
C2        C        0.84375        0.407408        0.12913861313868613        0        
C3        C        0.8125        0.425925        0.12913861313868613        0        
C4        C        0.84375        0.37037        0.12913861313868613        0        
C1        C        0.8125        0.46296300000000007        0.12913861313868613        0        
C2        C        0.84375        0.518519        0.12913861313868613        0        
C3        C        0.8125        0.537037        0.12913861313868613        0        
C4        C        0.84375        0.481481        0.12913861313868613        0        
C1        C        0.8125        0.574075        0.12913861313868613        0        
C2        C        0.84375        0.62963        0.12913861313868613        0        
C3        C        0.8125        0.648148        0.12913861313868613        0        
C4        C        0.84375        0.592592        0.12913861313868613        0        
C_FG        C        0.875        0.018519        0.12913861313868613        0.2        
C2        C        0.9062500000000001        0.074075        0.12913861313868613        0        
C3        C        0.875        0.092592        0.12913861313868613        0        
C4        C        0.9062500000000001        0.037037        0.12913861313868613        0        
C_FG        C        0.875        0.12963        0.12913861313868613        0.2        
C2        C        0.9062500000000001        0.185185        0.12913861313868613        0        
C3        C        0.875        0.203703        0.12913861313868613        0        
C4        C        0.9062500000000001        0.148148        0.12913861313868613        0        
C_FG        C        0.875        0.24074099999999998        0.12913861313868613        0.2        
C2        C        0.9062500000000001        0.296297        0.12913861313868613        0        
C3        C        0.875        0.314815        0.12913861313868613        0        
C4        C        0.9062500000000001        0.259259        0.12913861313868613        0        
C_FG        C        0.875        0.351852        0.12913861313868613        0.2        
C2        C        0.9062500000000001        0.407408        0.12913861313868613        0        
C3        C        0.875        0.425925        0.12913861313868613        0        
C4        C        0.9062500000000001        0.37037        0.12913861313868613        0        
C_FG        C        0.875        0.46296300000000007        0.12913861313868613        0.2        
C2        C        0.9062500000000001        0.518519        0.12913861313868613        0        
C3        C        0.875        0.537037        0.12913861313868613        0        
C4        C        0.9062500000000001        0.481481        0.12913861313868613        0        
C_FG        C        0.875        0.574075        0.12913861313868613        0.2        
C2        C        0.9062500000000001        0.62963        0.12913861313868613        0        
C3        C        0.875        0.648148        0.12913861313868613        0        
C4        C        0.9062500000000001        0.592592        0.12913861313868613        0        
C1        C        0.9375        0.018519        0.12913861313868613        0        
C2        C        0.9687500000000001        0.074075        0.12913861313868613        0        
C3        C        0.9375        0.092592        0.12913861313868613        0        
C4        C        0.9687500000000001        0.037037        0.12913861313868613        0        
C1        C        0.9375        0.12963        0.12913861313868613        0        
C2        C        0.9687500000000001        0.185185        0.12913861313868613        0        
C3        C        0.9375        0.203703        0.12913861313868613        0        
C4        C        0.9687500000000001        0.148148        0.12913861313868613        0        
C1        C        0.9375        0.24074099999999998        0.12913861313868613        0        
C2        C        0.9687500000000001        0.296297        0.12913861313868613        0        
C3        C        0.9375        0.314815        0.12913861313868613        0        
C4        C        0.9687500000000001        0.259259        0.12913861313868613        0        
C1        C        0.9375        0.351852        0.12913861313868613        0        
C2        C        0.9687500000000001        0.407408        0.12913861313868613        0        
C3        C        0.9375        0.425925        0.12913861313868613        0        
C4        C        0.9687500000000001        0.37037        0.12913861313868613        0        
C1        C        0.9375        0.46296300000000007        0.12913861313868613        0        
C2        C        0.9687500000000001        0.518519        0.12913861313868613        0        
C3        C        0.9375        0.537037        0.12913861313868613        0        
C4        C        0.9687500000000001        0.481481        0.12913861313868613        0        
C1        C        0.9375        0.574075        0.12913861313868613        0        
C2        C        0.9687500000000001        0.62963        0.12913861313868613        0        
C3        C        0.9375        0.648148        0.12913861313868613        0        
C4        C        0.9687500000000001        0.592592        0.12913861313868613        0        
C_FG        C        0.0        0.685186        0.12913861313868613        0.2        
C1        C        0.0625        0.685186        0.12913861313868613        0        
C_FG        C        0.125        0.685186        0.12913861313868613        0.2        
C1        C        0.1875        0.685186        0.12913861313868613        0        
C_FG        C        0.25        0.685186        0.12913861313868613        0.2        
C1        C        0.3125        0.685186        0.12913861313868613        0        
C_FG        C        0.375        0.685186        0.12913861313868613        0.2        
C1        C        0.4375        0.685186        0.12913861313868613        0        
C_FG        C        0.5        0.685186        0.12913861313868613        0.2        
C1        C        0.5625        0.685186        0.12913861313868613        0        
C_FG        C        0.625        0.685186        0.12913861313868613        0.2        
C1        C        0.6875        0.685186        0.12913861313868613        0        
C_FG        C        0.75        0.685186        0.12913861313868613        0.2        
C1        C        0.8125        0.685186        0.12913861313868613        0        
C_FG        C        0.875        0.685186        0.12913861313868613        0.2        
C1        C        0.9375        0.685186        0.12913861313868613        0        
C2        C        0.03125        0.740741        0.12913861313868613        0        
C2        C        0.09375        0.740741        0.12913861313868613        0        
C2        C        0.15625        0.740741        0.12913861313868613        0        
C2        C        0.21875        0.740741        0.12913861313868613        0        
C2        C        0.28125        0.740741        0.12913861313868613        0        
C2        C        0.34375        0.740741        0.12913861313868613        0        
C2        C        0.40625        0.740741        0.12913861313868613        0        
C2        C        0.46875        0.740741        0.12913861313868613        0        
C2        C        0.53125        0.740741        0.12913861313868613        0        
C2        C        0.59375        0.740741        0.12913861313868613        0        
C2        C        0.65625        0.740741        0.12913861313868613        0        
C2        C        0.71875        0.740741        0.12913861313868613        0        
C2        C        0.78125        0.740741        0.12913861313868613        0        
C2        C        0.84375        0.740741        0.12913861313868613        0        
C2        C        0.9062500000000001        0.740741        0.12913861313868613        0        
C2        C        0.9687500000000001        0.740741        0.12913861313868613        0        
C3        C        0.0        0.759259        0.12913861313868613        0        
C3        C        0.0625        0.759259        0.12913861313868613        0        
C3        C        0.125        0.759259        0.12913861313868613        0        
C3        C        0.1875        0.759259        0.12913861313868613        0        
C3        C        0.25        0.759259        0.12913861313868613        0        
C3        C        0.3125        0.759259        0.12913861313868613        0        
C3        C        0.375        0.759259        0.12913861313868613        0        
C3        C        0.4375        0.759259        0.12913861313868613        0        
C3        C        0.5        0.759259        0.12913861313868613        0        
C3        C        0.5625        0.759259        0.12913861313868613        0        
C3        C        0.625        0.759259        0.12913861313868613        0        
C3        C        0.6875        0.759259        0.12913861313868613        0        
C3        C        0.75        0.759259        0.12913861313868613        0        
C3        C        0.8125        0.759259        0.12913861313868613        0        
C3        C        0.875        0.759259        0.12913861313868613        0        
C3        C        0.9375        0.759259        0.12913861313868613        0        
C4        C        0.03125        0.703703        0.12913861313868613        0        
C4        C        0.09375        0.703703        0.12913861313868613        0        
C4        C        0.15625        0.703703        0.12913861313868613        0        
C4        C        0.21875        0.703703        0.12913861313868613        0        
C4        C        0.28125        0.703703        0.12913861313868613        0        
C4        C        0.34375        0.703703        0.12913861313868613        0        
C4        C        0.40625        0.703703        0.12913861313868613        0        
C4        C        0.46875        0.703703        0.12913861313868613        0        
C4        C        0.53125        0.703703        0.12913861313868613        0        
C4        C        0.59375        0.703703        0.12913861313868613        0        
C4        C        0.65625        0.703703        0.12913861313868613        0        
C4        C        0.71875        0.703703        0.12913861313868613        0        
C4        C        0.78125        0.703703        0.12913861313868613        0        
C4        C        0.84375        0.703703        0.12913861313868613        0        
C4        C        0.9062500000000001        0.703703        0.12913861313868613        0        
C4        C        0.9687500000000001        0.703703        0.12913861313868613        0        
C_FG        C        0.0        0.796297        0.12913861313868613        0.2        
C1        C        0.0625        0.796297        0.12913861313868613        0        
C_FG        C        0.125        0.796297        0.12913861313868613        0.2        
C1        C        0.1875        0.796297        0.12913861313868613        0        
C_FG        C        0.25        0.796297        0.12913861313868613        0.2        
C1        C        0.3125        0.796297        0.12913861313868613        0        
C_FG        C        0.375        0.796297        0.12913861313868613        0.2        
C1        C        0.4375        0.796297        0.12913861313868613        0        
C_FG        C        0.5        0.796297        0.12913861313868613        0.2        
C1        C        0.5625        0.796297        0.12913861313868613        0        
C_FG        C        0.625        0.796297        0.12913861313868613        0.2        
C1        C        0.6875        0.796297        0.12913861313868613        0        
C_FG        C        0.75        0.796297        0.12913861313868613        0.2        
C1        C        0.8125        0.796297        0.12913861313868613        0        
C_FG        C        0.875        0.796297        0.12913861313868613        0.2        
C1        C        0.9375        0.796297        0.12913861313868613        0        
C2        C        0.03125        0.851852        0.12913861313868613        0        
C2        C        0.09375        0.851852        0.12913861313868613        0        
C2        C        0.15625        0.851852        0.12913861313868613        0        
C2        C        0.21875        0.851852        0.12913861313868613        0        
C2        C        0.28125        0.851852        0.12913861313868613        0        
C2        C        0.34375        0.851852        0.12913861313868613        0        
C2        C        0.40625        0.851852        0.12913861313868613        0        
C2        C        0.46875        0.851852        0.12913861313868613        0        
C2        C        0.53125        0.851852        0.12913861313868613        0        
C2        C        0.59375        0.851852        0.12913861313868613        0        
C2        C        0.65625        0.851852        0.12913861313868613        0        
C2        C        0.71875        0.851852        0.12913861313868613        0        
C2        C        0.78125        0.851852        0.12913861313868613        0        
C2        C        0.84375        0.851852        0.12913861313868613        0        
C2        C        0.9062500000000001        0.851852        0.12913861313868613        0        
C2        C        0.9687500000000001        0.851852        0.12913861313868613        0        
C3        C        0.0        0.87037        0.12913861313868613        0        
C3        C        0.0625        0.87037        0.12913861313868613        0        
C3        C        0.125        0.87037        0.12913861313868613        0        
C3        C        0.1875        0.87037        0.12913861313868613        0        
C3        C        0.25        0.87037        0.12913861313868613        0        
C3        C        0.3125        0.87037        0.12913861313868613        0        
C3        C        0.375        0.87037        0.12913861313868613        0        
C3        C        0.4375        0.87037        0.12913861313868613        0        
C3        C        0.5        0.87037        0.12913861313868613        0        
C3        C        0.5625        0.87037        0.12913861313868613        0        
C3        C        0.625        0.87037        0.12913861313868613        0        
C3        C        0.6875        0.87037        0.12913861313868613        0        
C3        C        0.75        0.87037        0.12913861313868613        0        
C3        C        0.8125        0.87037        0.12913861313868613        0        
C3        C        0.875        0.87037        0.12913861313868613        0        
C3        C        0.9375        0.87037        0.12913861313868613        0        
C4        C        0.03125        0.814814        0.12913861313868613        0        
C4        C        0.09375        0.814814        0.12913861313868613        0        
C4        C        0.15625        0.814814        0.12913861313868613        0        
C4        C        0.21875        0.814814        0.12913861313868613        0        
C4        C        0.28125        0.814814        0.12913861313868613        0        
C4        C        0.34375        0.814814        0.12913861313868613        0        
C4        C        0.40625        0.814814        0.12913861313868613        0        
C4        C        0.46875        0.814814        0.12913861313868613        0        
C4        C        0.53125        0.814814        0.12913861313868613        0        
C4        C        0.59375        0.814814        0.12913861313868613        0        
C4        C        0.65625        0.814814        0.12913861313868613        0        
C4        C        0.71875        0.814814        0.12913861313868613        0        
C4        C        0.78125        0.814814        0.12913861313868613        0        
C4        C        0.84375        0.814814        0.12913861313868613        0        
C4        C        0.9062500000000001        0.814814        0.12913861313868613        0        
C4        C        0.9687500000000001        0.814814        0.12913861313868613        0        
C_FG        C        0.0        0.907408        0.12913861313868613        0.2        
C1        C        0.0625        0.907408        0.12913861313868613        0        
C_FG        C        0.125        0.907408        0.12913861313868613        0.2        
C1        C        0.1875        0.907408        0.12913861313868613        0        
C_FG        C        0.25        0.907408        0.12913861313868613        0.2        
C1        C        0.3125        0.907408        0.12913861313868613        0        
C_FG        C        0.375        0.907408        0.12913861313868613        0.2        
C1        C        0.4375        0.907408        0.12913861313868613        0        
C_FG        C        0.5        0.907408        0.12913861313868613        0.2        
C1        C        0.5625        0.907408        0.12913861313868613        0        
C_FG        C        0.625        0.907408        0.12913861313868613        0.2        
C1        C        0.6875        0.907408        0.12913861313868613        0        
C_FG        C        0.75        0.907408        0.12913861313868613        0.2        
C1        C        0.8125        0.907408        0.12913861313868613        0        
C_FG        C        0.875        0.907408        0.12913861313868613        0.2        
C1        C        0.9375        0.907408        0.12913861313868613        0        
C2        C        0.03125        0.962963        0.12913861313868613        0        
C2        C        0.09375        0.962963        0.12913861313868613        0        
C2        C        0.15625        0.962963        0.12913861313868613        0        
C2        C        0.21875        0.962963        0.12913861313868613        0        
C2        C        0.28125        0.962963        0.12913861313868613        0        
C2        C        0.34375        0.962963        0.12913861313868613        0        
C2        C        0.40625        0.962963        0.12913861313868613        0        
C2        C        0.46875        0.962963        0.12913861313868613        0        
C2        C        0.53125        0.962963        0.12913861313868613        0        
C2        C        0.59375        0.962963        0.12913861313868613        0        
C2        C        0.65625        0.962963        0.12913861313868613        0        
C2        C        0.71875        0.962963        0.12913861313868613        0        
C2        C        0.78125        0.962963        0.12913861313868613        0        
C2        C        0.84375        0.962963        0.12913861313868613        0        
C2        C        0.9062500000000001        0.962963        0.12913861313868613        0        
C2        C        0.9687500000000001        0.962963        0.12913861313868613        0        
C3        C        0.0        0.9814809999999999        0.12913861313868613        0        
C3        C        0.0625        0.9814809999999999        0.12913861313868613        0        
C3        C        0.125        0.9814809999999999        0.12913861313868613        0        
C3        C        0.1875        0.9814809999999999        0.12913861313868613        0        
C3        C        0.25        0.9814809999999999        0.12913861313868613        0        
C3        C        0.3125        0.9814809999999999        0.12913861313868613        0        
C3        C        0.375        0.9814809999999999        0.12913861313868613        0        
C3        C        0.4375        0.9814809999999999        0.12913861313868613        0        
C3        C        0.5        0.9814809999999999        0.12913861313868613        0        
C3        C        0.5625        0.9814809999999999        0.12913861313868613        0        
C3        C        0.625        0.9814809999999999        0.12913861313868613        0        
C3        C        0.6875        0.9814809999999999        0.12913861313868613        0        
C3        C        0.75        0.9814809999999999        0.12913861313868613        0        
C3        C        0.8125        0.9814809999999999        0.12913861313868613        0        
C3        C        0.875        0.9814809999999999        0.12913861313868613        0        
C3        C        0.9375        0.9814809999999999        0.12913861313868613        0        
C4        C        0.03125        0.925925        0.12913861313868613        0        
C4        C        0.09375        0.925925        0.12913861313868613        0        
C4        C        0.15625        0.925925        0.12913861313868613        0        
C4        C        0.21875        0.925925        0.12913861313868613        0        
C4        C        0.28125        0.925925        0.12913861313868613        0        
C4        C        0.34375        0.925925        0.12913861313868613        0        
C4        C        0.40625        0.925925        0.12913861313868613        0        
C4        C        0.46875        0.925925        0.12913861313868613        0        
C4        C        0.53125        0.925925        0.12913861313868613        0        
C4        C        0.59375        0.925925        0.12913861313868613        0        
C4        C        0.65625        0.925925        0.12913861313868613        0        
C4        C        0.71875        0.925925        0.12913861313868613        0        
C4        C        0.78125        0.925925        0.12913861313868613        0        
C4        C        0.84375        0.925925        0.12913861313868613        0        
C4        C        0.9062500000000001        0.925925        0.12913861313868613        0        
C4        C        0.9687500000000001        0.925925        0.12913861313868613        0        
C1        C        0.0        0.018519        0.3736641605839415        0        
C2        C        0.03125        0.074075        0.3736641605839415        0        
C3        C        0.0        0.092592        0.3736641605839415        0        
C4        C        0.03125        0.037037        0.3736641605839415        0        
C1        C        0.0        0.12963        0.3736641605839415        0        
C2        C        0.03125        0.185185        0.3736641605839415        0        
C3        C        0.0        0.203703        0.3736641605839415        0        
C4        C        0.03125        0.148148        0.3736641605839415        0        
C1        C        0.0        0.24074099999999998        0.3736641605839415        0        
C2        C        0.03125        0.296297        0.3736641605839415        0        
C3        C        0.0        0.314815        0.3736641605839415        0        
C4        C        0.03125        0.259259        0.3736641605839415        0        
C1        C        0.0        0.351852        0.3736641605839415        0        
C2        C        0.03125        0.407408        0.3736641605839415        0        
C3        C        0.0        0.425925        0.3736641605839415        0        
C4        C        0.03125        0.37037        0.3736641605839415        0        
C1        C        0.0        0.46296300000000007        0.3736641605839415        0        
C2        C        0.03125        0.518519        0.3736641605839415        0        
C3        C        0.0        0.537037        0.3736641605839415        0        
C4        C        0.03125        0.481481        0.3736641605839415        0        
C1        C        0.0        0.574075        0.3736641605839415        0        
C2        C        0.03125        0.62963        0.3736641605839415        0        
C3        C        0.0        0.648148        0.3736641605839415        0        
C4        C        0.03125        0.592592        0.3736641605839415        0        
C1        C        0.0625        0.018519        0.3736641605839415        0        
C2        C        0.09375        0.074075        0.3736641605839415        0        
C3        C        0.0625        0.092592        0.3736641605839415        0        
C4        C        0.09375        0.037037        0.3736641605839415        0        
C1        C        0.0625        0.12963        0.3736641605839415        0        
C2        C        0.09375        0.185185        0.3736641605839415        0        
C3        C        0.0625        0.203703        0.3736641605839415        0        
C4        C        0.09375        0.148148        0.3736641605839415        0        
C1        C        0.0625        0.24074099999999998        0.3736641605839415        0        
C2        C        0.09375        0.296297        0.3736641605839415        0        
C3        C        0.0625        0.314815        0.3736641605839415        0        
C4        C        0.09375        0.259259        0.3736641605839415        0        
C1        C        0.0625        0.351852        0.3736641605839415        0        
C2        C        0.09375        0.407408        0.3736641605839415        0        
C3        C        0.0625        0.425925        0.3736641605839415        0        
C4        C        0.09375        0.37037        0.3736641605839415        0        
C1        C        0.0625        0.46296300000000007        0.3736641605839415        0        
C2        C        0.09375        0.518519        0.3736641605839415        0        
C3        C        0.0625        0.537037        0.3736641605839415        0        
C4        C        0.09375        0.481481        0.3736641605839415        0        
C1        C        0.0625        0.574075        0.3736641605839415        0        
C2        C        0.09375        0.62963        0.3736641605839415        0        
C3        C        0.0625        0.648148        0.3736641605839415        0        
C4        C        0.09375        0.592592        0.3736641605839415        0        
C1        C        0.125        0.018519        0.3736641605839415        0        
C2        C        0.15625        0.074075        0.3736641605839415        0        
C3        C        0.125        0.092592        0.3736641605839415        0        
C4        C        0.15625        0.037037        0.3736641605839415        0        
C1        C        0.125        0.12963        0.3736641605839415        0        
C2        C        0.15625        0.185185        0.3736641605839415        0        
C3        C        0.125        0.203703        0.3736641605839415        0        
C4        C        0.15625        0.148148        0.3736641605839415        0        
C1        C        0.125        0.24074099999999998        0.3736641605839415        0        
C2        C        0.15625        0.296297        0.3736641605839415        0        
C3        C        0.125        0.314815        0.3736641605839415        0        
C4        C        0.15625        0.259259        0.3736641605839415        0        
C1        C        0.125        0.351852        0.3736641605839415        0        
C2        C        0.15625        0.407408        0.3736641605839415        0        
C3        C        0.125        0.425925        0.3736641605839415        0        
C4        C        0.15625        0.37037        0.3736641605839415        0        
C1        C        0.125        0.46296300000000007        0.3736641605839415        0        
C2        C        0.15625        0.518519        0.3736641605839415        0        
C3        C        0.125        0.537037        0.3736641605839415        0        
C4        C        0.15625        0.481481        0.3736641605839415        0        
C1        C        0.125        0.574075        0.3736641605839415        0        
C2        C        0.15625        0.62963        0.3736641605839415        0        
C3        C        0.125        0.648148        0.3736641605839415        0        
C4        C        0.15625        0.592592        0.3736641605839415        0        
C1        C        0.1875        0.018519        0.3736641605839415        0        
C2        C        0.21875        0.074075        0.3736641605839415        0        
C3        C        0.1875        0.092592        0.3736641605839415        0        
C4        C        0.21875        0.037037        0.3736641605839415        0        
C1        C        0.1875        0.12963        0.3736641605839415        0        
C2        C        0.21875        0.185185        0.3736641605839415        0        
C3        C        0.1875        0.203703        0.3736641605839415        0        
C4        C        0.21875        0.148148        0.3736641605839415        0        
C1        C        0.1875        0.24074099999999998        0.3736641605839415        0        
C2        C        0.21875        0.296297        0.3736641605839415        0        
C3        C        0.1875        0.314815        0.3736641605839415        0        
C4        C        0.21875        0.259259        0.3736641605839415        0        
C1        C        0.1875        0.351852        0.3736641605839415        0        
C2        C        0.21875        0.407408        0.3736641605839415        0        
C3        C        0.1875        0.425925        0.3736641605839415        0        
C4        C        0.21875        0.37037        0.3736641605839415        0        
C1        C        0.1875        0.46296300000000007        0.3736641605839415        0        
C2        C        0.21875        0.518519        0.3736641605839415        0        
C3        C        0.1875        0.537037        0.3736641605839415        0        
C4        C        0.21875        0.481481        0.3736641605839415        0        
C1        C        0.1875        0.574075        0.3736641605839415        0        
C2        C        0.21875        0.62963        0.3736641605839415        0        
C3        C        0.1875        0.648148        0.3736641605839415        0        
C4        C        0.21875        0.592592        0.3736641605839415        0        
C1        C        0.25        0.018519        0.3736641605839415        0        
C2        C        0.28125        0.074075        0.3736641605839415        0        
C3        C        0.25        0.092592        0.3736641605839415        0        
C4        C        0.28125        0.037037        0.3736641605839415        0        
C1        C        0.25        0.12963        0.3736641605839415        0        
C2        C        0.28125        0.185185        0.3736641605839415        0        
C3        C        0.25        0.203703        0.3736641605839415        0        
C4        C        0.28125        0.148148        0.3736641605839415        0        
C1        C        0.25        0.24074099999999998        0.3736641605839415        0        
C2        C        0.28125        0.296297        0.3736641605839415        0        
C3        C        0.25        0.314815        0.3736641605839415        0        
C4        C        0.28125        0.259259        0.3736641605839415        0        
C1        C        0.25        0.351852        0.3736641605839415        0        
C2        C        0.28125        0.407408        0.3736641605839415        0        
C3        C        0.25        0.425925        0.3736641605839415        0        
C4        C        0.28125        0.37037        0.3736641605839415        0        
C1        C        0.25        0.46296300000000007        0.3736641605839415        0        
C2        C        0.28125        0.518519        0.3736641605839415        0        
C3        C        0.25        0.537037        0.3736641605839415        0        
C4        C        0.28125        0.481481        0.3736641605839415        0        
C1        C        0.25        0.574075        0.3736641605839415        0        
C2        C        0.28125        0.62963        0.3736641605839415        0        
C3        C        0.25        0.648148        0.3736641605839415        0        
C4        C        0.28125        0.592592        0.3736641605839415        0        
C1        C        0.3125        0.018519        0.3736641605839415        0        
C2        C        0.34375        0.074075        0.3736641605839415        0        
C3        C        0.3125        0.092592        0.3736641605839415        0        
C4        C        0.34375        0.037037        0.3736641605839415        0        
C1        C        0.3125        0.12963        0.3736641605839415        0        
C2        C        0.34375        0.185185        0.3736641605839415        0        
C3        C        0.3125        0.203703        0.3736641605839415        0        
C4        C        0.34375        0.148148        0.3736641605839415        0        
C1        C        0.3125        0.24074099999999998        0.3736641605839415        0        
C2        C        0.34375        0.296297        0.3736641605839415        0        
C3        C        0.3125        0.314815        0.3736641605839415        0        
C4        C        0.34375        0.259259        0.3736641605839415        0        
C1        C        0.3125        0.351852        0.3736641605839415        0        
C2        C        0.34375        0.407408        0.3736641605839415        0        
C3        C        0.3125        0.425925        0.3736641605839415        0        
C4        C        0.34375        0.37037        0.3736641605839415        0        
C1        C        0.3125        0.46296300000000007        0.3736641605839415        0        
C2        C        0.34375        0.518519        0.3736641605839415        0        
C3        C        0.3125        0.537037        0.3736641605839415        0        
C4        C        0.34375        0.481481        0.3736641605839415        0        
C1        C        0.3125        0.574075        0.3736641605839415        0        
C2        C        0.34375        0.62963        0.3736641605839415        0        
C3        C        0.3125        0.648148        0.3736641605839415        0        
C4        C        0.34375        0.592592        0.3736641605839415        0        
C1        C        0.375        0.018519        0.3736641605839415        0        
C2        C        0.40625        0.074075        0.3736641605839415        0        
C3        C        0.375        0.092592        0.3736641605839415        0        
C4        C        0.40625        0.037037        0.3736641605839415        0        
C1        C        0.375        0.12963        0.3736641605839415        0        
C2        C        0.40625        0.185185        0.3736641605839415        0        
C3        C        0.375        0.203703        0.3736641605839415        0        
C4        C        0.40625        0.148148        0.3736641605839415        0        
C1        C        0.375        0.24074099999999998        0.3736641605839415        0        
C2        C        0.40625        0.296297        0.3736641605839415        0        
C3        C        0.375        0.314815        0.3736641605839415        0        
C4        C        0.40625        0.259259        0.3736641605839415        0        
C1        C        0.375        0.351852        0.3736641605839415        0        
C2        C        0.40625        0.407408        0.3736641605839415        0        
C3        C        0.375        0.425925        0.3736641605839415        0        
C4        C        0.40625        0.37037        0.3736641605839415        0        
C1        C        0.375        0.46296300000000007        0.3736641605839415        0        
C2        C        0.40625        0.518519        0.3736641605839415        0        
C3        C        0.375        0.537037        0.3736641605839415        0        
C4        C        0.40625        0.481481        0.3736641605839415        0        
C1        C        0.375        0.574075        0.3736641605839415        0        
C2        C        0.40625        0.62963        0.3736641605839415        0        
C3        C        0.375        0.648148        0.3736641605839415        0        
C4        C        0.40625        0.592592        0.3736641605839415        0        
C1        C        0.4375        0.018519        0.3736641605839415        0        
C2        C        0.46875        0.074075        0.3736641605839415        0        
C3        C        0.4375        0.092592        0.3736641605839415        0        
C4        C        0.46875        0.037037        0.3736641605839415        0        
C1        C        0.4375        0.12963        0.3736641605839415        0        
C2        C        0.46875        0.185185        0.3736641605839415        0        
C3        C        0.4375        0.203703        0.3736641605839415        0        
C4        C        0.46875        0.148148        0.3736641605839415        0        
C1        C        0.4375        0.24074099999999998        0.3736641605839415        0        
C2        C        0.46875        0.296297        0.3736641605839415        0        
C3        C        0.4375        0.314815        0.3736641605839415        0        
C4        C        0.46875        0.259259        0.3736641605839415        0        
C1        C        0.4375        0.351852        0.3736641605839415        0        
C2        C        0.46875        0.407408        0.3736641605839415        0        
C3        C        0.4375        0.425925        0.3736641605839415        0        
C4        C        0.46875        0.37037        0.3736641605839415        0        
C1        C        0.4375        0.46296300000000007        0.3736641605839415        0        
C2        C        0.46875        0.518519        0.3736641605839415        0        
C3        C        0.4375        0.537037        0.3736641605839415        0        
C4        C        0.46875        0.481481        0.3736641605839415        0        
C1        C        0.4375        0.574075        0.3736641605839415        0        
C2        C        0.46875        0.62963        0.3736641605839415        0        
C3        C        0.4375        0.648148        0.3736641605839415        0        
C4        C        0.46875        0.592592        0.3736641605839415        0        
C1        C        0.5        0.018519        0.3736641605839415        0        
C2        C        0.53125        0.074075        0.3736641605839415        0        
C3        C        0.5        0.092592        0.3736641605839415        0        
C4        C        0.53125        0.037037        0.3736641605839415        0        
C1        C        0.5        0.12963        0.3736641605839415        0        
C2        C        0.53125        0.185185        0.3736641605839415        0        
C3        C        0.5        0.203703        0.3736641605839415        0        
C4        C        0.53125        0.148148        0.3736641605839415        0        
C1        C        0.5        0.24074099999999998        0.3736641605839415        0        
C2        C        0.53125        0.296297        0.3736641605839415        0        
C3        C        0.5        0.314815        0.3736641605839415        0        
C4        C        0.53125        0.259259        0.3736641605839415        0        
C1        C        0.5        0.351852        0.3736641605839415        0        
C2        C        0.53125        0.407408        0.3736641605839415        0        
C3        C        0.5        0.425925        0.3736641605839415        0        
C4        C        0.53125        0.37037        0.3736641605839415        0        
C1        C        0.5        0.46296300000000007        0.3736641605839415        0        
C2        C        0.53125        0.518519        0.3736641605839415        0        
C3        C        0.5        0.537037        0.3736641605839415        0        
C4        C        0.53125        0.481481        0.3736641605839415        0        
C1        C        0.5        0.574075        0.3736641605839415        0        
C2        C        0.53125        0.62963        0.3736641605839415        0        
C3        C        0.5        0.648148        0.3736641605839415        0        
C4        C        0.53125        0.592592        0.3736641605839415        0        
C1        C        0.5625        0.018519        0.3736641605839415        0        
C2        C        0.59375        0.074075        0.3736641605839415        0        
C3        C        0.5625        0.092592        0.3736641605839415        0        
C4        C        0.59375        0.037037        0.3736641605839415        0        
C1        C        0.5625        0.12963        0.3736641605839415        0        
C2        C        0.59375        0.185185        0.3736641605839415        0        
C3        C        0.5625        0.203703        0.3736641605839415        0        
C4        C        0.59375        0.148148        0.3736641605839415        0        
C1        C        0.5625        0.24074099999999998        0.3736641605839415        0        
C2        C        0.59375        0.296297        0.3736641605839415        0        
C3        C        0.5625        0.314815        0.3736641605839415        0        
C4        C        0.59375        0.259259        0.3736641605839415        0        
C1        C        0.5625        0.351852        0.3736641605839415        0        
C2        C        0.59375        0.407408        0.3736641605839415        0        
C3        C        0.5625        0.425925        0.3736641605839415        0        
C4        C        0.59375        0.37037        0.3736641605839415        0        
C1        C        0.5625        0.46296300000000007        0.3736641605839415        0        
C2        C        0.59375        0.518519        0.3736641605839415        0        
C3        C        0.5625        0.537037        0.3736641605839415        0        
C4        C        0.59375        0.481481        0.3736641605839415        0        
C1        C        0.5625        0.574075        0.3736641605839415        0        
C2        C        0.59375        0.62963        0.3736641605839415        0        
C3        C        0.5625        0.648148        0.3736641605839415        0        
C4        C        0.59375        0.592592        0.3736641605839415        0        
C1        C        0.625        0.018519        0.3736641605839415        0        
C2        C        0.65625        0.074075        0.3736641605839415        0        
C3        C        0.625        0.092592        0.3736641605839415        0        
C4        C        0.65625        0.037037        0.3736641605839415        0        
C1        C        0.625        0.12963        0.3736641605839415        0        
C2        C        0.65625        0.185185        0.3736641605839415        0        
C3        C        0.625        0.203703        0.3736641605839415        0        
C4        C        0.65625        0.148148        0.3736641605839415        0        
C1        C        0.625        0.24074099999999998        0.3736641605839415        0        
C2        C        0.65625        0.296297        0.3736641605839415        0        
C3        C        0.625        0.314815        0.3736641605839415        0        
C4        C        0.65625        0.259259        0.3736641605839415        0        
C1        C        0.625        0.351852        0.3736641605839415        0        
C2        C        0.65625        0.407408        0.3736641605839415        0        
C3        C        0.625        0.425925        0.3736641605839415        0        
C4        C        0.65625        0.37037        0.3736641605839415        0        
C1        C        0.625        0.46296300000000007        0.3736641605839415        0        
C2        C        0.65625        0.518519        0.3736641605839415        0        
C3        C        0.625        0.537037        0.3736641605839415        0        
C4        C        0.65625        0.481481        0.3736641605839415        0        
C1        C        0.625        0.574075        0.3736641605839415        0        
C2        C        0.65625        0.62963        0.3736641605839415        0        
C3        C        0.625        0.648148        0.3736641605839415        0        
C4        C        0.65625        0.592592        0.3736641605839415        0        
C1        C        0.6875        0.018519        0.3736641605839415        0        
C2        C        0.71875        0.074075        0.3736641605839415        0        
C3        C        0.6875        0.092592        0.3736641605839415        0        
C4        C        0.71875        0.037037        0.3736641605839415        0        
C1        C        0.6875        0.12963        0.3736641605839415        0        
C2        C        0.71875        0.185185        0.3736641605839415        0        
C3        C        0.6875        0.203703        0.3736641605839415        0        
C4        C        0.71875        0.148148        0.3736641605839415        0        
C1        C        0.6875        0.24074099999999998        0.3736641605839415        0        
C2        C        0.71875        0.296297        0.3736641605839415        0        
C3        C        0.6875        0.314815        0.3736641605839415        0        
C4        C        0.71875        0.259259        0.3736641605839415        0        
C1        C        0.6875        0.351852        0.3736641605839415        0        
C2        C        0.71875        0.407408        0.3736641605839415        0        
C3        C        0.6875        0.425925        0.3736641605839415        0        
C4        C        0.71875        0.37037        0.3736641605839415        0        
C1        C        0.6875        0.46296300000000007        0.3736641605839415        0        
C2        C        0.71875        0.518519        0.3736641605839415        0        
C3        C        0.6875        0.537037        0.3736641605839415        0        
C4        C        0.71875        0.481481        0.3736641605839415        0        
C1        C        0.6875        0.574075        0.3736641605839415        0        
C2        C        0.71875        0.62963        0.3736641605839415        0        
C3        C        0.6875        0.648148        0.3736641605839415        0        
C4        C        0.71875        0.592592        0.3736641605839415        0        
C1        C        0.75        0.018519        0.3736641605839415        0        
C2        C        0.78125        0.074075        0.3736641605839415        0        
C3        C        0.75        0.092592        0.3736641605839415        0        
C4        C        0.78125        0.037037        0.3736641605839415        0        
C1        C        0.75        0.12963        0.3736641605839415        0        
C2        C        0.78125        0.185185        0.3736641605839415        0        
C3        C        0.75        0.203703        0.3736641605839415        0        
C4        C        0.78125        0.148148        0.3736641605839415        0        
C1        C        0.75        0.24074099999999998        0.3736641605839415        0        
C2        C        0.78125        0.296297        0.3736641605839415        0        
C3        C        0.75        0.314815        0.3736641605839415        0        
C4        C        0.78125        0.259259        0.3736641605839415        0        
C1        C        0.75        0.351852        0.3736641605839415        0        
C2        C        0.78125        0.407408        0.3736641605839415        0        
C3        C        0.75        0.425925        0.3736641605839415        0        
C4        C        0.78125        0.37037        0.3736641605839415        0        
C1        C        0.75        0.46296300000000007        0.3736641605839415        0        
C2        C        0.78125        0.518519        0.3736641605839415        0        
C3        C        0.75        0.537037        0.3736641605839415        0        
C4        C        0.78125        0.481481        0.3736641605839415        0        
C1        C        0.75        0.574075        0.3736641605839415        0        
C2        C        0.78125        0.62963        0.3736641605839415        0        
C3        C        0.75        0.648148        0.3736641605839415        0        
C4        C        0.78125        0.592592        0.3736641605839415        0        
C1        C        0.8125        0.018519        0.3736641605839415        0        
C2        C        0.84375        0.074075        0.3736641605839415        0        
C3        C        0.8125        0.092592        0.3736641605839415        0        
C4        C        0.84375        0.037037        0.3736641605839415        0        
C1        C        0.8125        0.12963        0.3736641605839415        0        
C2        C        0.84375        0.185185        0.3736641605839415        0        
C3        C        0.8125        0.203703        0.3736641605839415        0        
C4        C        0.84375        0.148148        0.3736641605839415        0        
C1        C        0.8125        0.24074099999999998        0.3736641605839415        0        
C2        C        0.84375        0.296297        0.3736641605839415        0        
C3        C        0.8125        0.314815        0.3736641605839415        0        
C4        C        0.84375        0.259259        0.3736641605839415        0        
C1        C        0.8125        0.351852        0.3736641605839415        0        
C2        C        0.84375        0.407408        0.3736641605839415        0        
C3        C        0.8125        0.425925        0.3736641605839415        0        
C4        C        0.84375        0.37037        0.3736641605839415        0        
C1        C        0.8125        0.46296300000000007        0.3736641605839415        0        
C2        C        0.84375        0.518519        0.3736641605839415        0        
C3        C        0.8125        0.537037        0.3736641605839415        0        
C4        C        0.84375        0.481481        0.3736641605839415        0        
C1        C        0.8125        0.574075        0.3736641605839415        0        
C2        C        0.84375        0.62963        0.3736641605839415        0        
C3        C        0.8125        0.648148        0.3736641605839415        0        
C4        C        0.84375        0.592592        0.3736641605839415        0        
C1        C        0.875        0.018519        0.3736641605839415        0        
C2        C        0.9062500000000001        0.074075        0.3736641605839415        0        
C3        C        0.875        0.092592        0.3736641605839415        0        
C4        C        0.9062500000000001        0.037037        0.3736641605839415        0        
C1        C        0.875        0.12963        0.3736641605839415        0        
C2        C        0.9062500000000001        0.185185        0.3736641605839415        0        
C3        C        0.875        0.203703        0.3736641605839415        0        
C4        C        0.9062500000000001        0.148148        0.3736641605839415        0        
C1        C        0.875        0.24074099999999998        0.3736641605839415        0        
C2        C        0.9062500000000001        0.296297        0.3736641605839415        0        
C3        C        0.875        0.314815        0.3736641605839415        0        
C4        C        0.9062500000000001        0.259259        0.3736641605839415        0        
C1        C        0.875        0.351852        0.3736641605839415        0        
C2        C        0.9062500000000001        0.407408        0.3736641605839415        0        
C3        C        0.875        0.425925        0.3736641605839415        0        
C4        C        0.9062500000000001        0.37037        0.3736641605839415        0        
C1        C        0.875        0.46296300000000007        0.3736641605839415        0        
C2        C        0.9062500000000001        0.518519        0.3736641605839415        0        
C3        C        0.875        0.537037        0.3736641605839415        0        
C4        C        0.9062500000000001        0.481481        0.3736641605839415        0        
C1        C        0.875        0.574075        0.3736641605839415        0        
C2        C        0.9062500000000001        0.62963        0.3736641605839415        0        
C3        C        0.875        0.648148        0.3736641605839415        0        
C4        C        0.9062500000000001        0.592592        0.3736641605839415        0        
C1        C        0.9375        0.018519        0.3736641605839415        0        
C2        C        0.9687500000000001        0.074075        0.3736641605839415        0        
C3        C        0.9375        0.092592        0.3736641605839415        0        
C4        C        0.9687500000000001        0.037037        0.3736641605839415        0        
C1        C        0.9375        0.12963        0.3736641605839415        0        
C2        C        0.9687500000000001        0.185185        0.3736641605839415        0        
C3        C        0.9375        0.203703        0.3736641605839415        0        
C4        C        0.9687500000000001        0.148148        0.3736641605839415        0        
C1        C        0.9375        0.24074099999999998        0.3736641605839415        0        
C2        C        0.9687500000000001        0.296297        0.3736641605839415        0        
C3        C        0.9375        0.314815        0.3736641605839415        0        
C4        C        0.9687500000000001        0.259259        0.3736641605839415        0        
C1        C        0.9375        0.351852        0.3736641605839415        0        
C2        C        0.9687500000000001        0.407408        0.3736641605839415        0        
C3        C        0.9375        0.425925        0.3736641605839415        0        
C4        C        0.9687500000000001        0.37037        0.3736641605839415        0        
C1        C        0.9375        0.46296300000000007        0.3736641605839415        0        
C2        C        0.9687500000000001        0.518519        0.3736641605839415        0        
C3        C        0.9375        0.537037        0.3736641605839415        0        
C4        C        0.9687500000000001        0.481481        0.3736641605839415        0        
C1        C        0.9375        0.574075        0.3736641605839415        0        
C2        C        0.9687500000000001        0.62963        0.3736641605839415        0        
C3        C        0.9375        0.648148        0.3736641605839415        0        
C4        C        0.9687500000000001        0.592592        0.3736641605839415        0        
C1        C        0.0        0.685186        0.3736641605839415        0        
C1        C        0.0625        0.685186        0.3736641605839415        0        
C1        C        0.125        0.685186        0.3736641605839415        0        
C1        C        0.1875        0.685186        0.3736641605839415        0        
C1        C        0.25        0.685186        0.3736641605839415        0        
C1        C        0.3125        0.685186        0.3736641605839415        0        
C1        C        0.375        0.685186        0.3736641605839415        0        
C1        C        0.4375        0.685186        0.3736641605839415        0        
C1        C        0.5        0.685186        0.3736641605839415        0        
C1        C        0.5625        0.685186        0.3736641605839415        0        
C1        C        0.625        0.685186        0.3736641605839415        0        
C1        C        0.6875        0.685186        0.3736641605839415        0        
C1        C        0.75        0.685186        0.3736641605839415        0        
C1        C        0.8125        0.685186        0.3736641605839415        0        
C1        C        0.875        0.685186        0.3736641605839415        0        
C1        C        0.9375        0.685186        0.3736641605839415        0        
C2        C        0.03125        0.740741        0.3736641605839415        0        
C2        C        0.09375        0.740741        0.3736641605839415        0        
C2        C        0.15625        0.740741        0.3736641605839415        0        
C2        C        0.21875        0.740741        0.3736641605839415        0        
C2        C        0.28125        0.740741        0.3736641605839415        0        
C2        C        0.34375        0.740741        0.3736641605839415        0        
C2        C        0.40625        0.740741        0.3736641605839415        0        
C2        C        0.46875        0.740741        0.3736641605839415        0        
C2        C        0.53125        0.740741        0.3736641605839415        0        
C2        C        0.59375        0.740741        0.3736641605839415        0        
C2        C        0.65625        0.740741        0.3736641605839415        0        
C2        C        0.71875        0.740741        0.3736641605839415        0        
C2        C        0.78125        0.740741        0.3736641605839415        0        
C2        C        0.84375        0.740741        0.3736641605839415        0        
C2        C        0.9062500000000001        0.740741        0.3736641605839415        0        
C2        C        0.9687500000000001        0.740741        0.3736641605839415        0        
C3        C        0.0        0.759259        0.3736641605839415        0        
C3        C        0.0625        0.759259        0.3736641605839415        0        
C3        C        0.125        0.759259        0.3736641605839415        0        
C3        C        0.1875        0.759259        0.3736641605839415        0        
C3        C        0.25        0.759259        0.3736641605839415        0        
C3        C        0.3125        0.759259        0.3736641605839415        0        
C3        C        0.375        0.759259        0.3736641605839415        0        
C3        C        0.4375        0.759259        0.3736641605839415        0        
C3        C        0.5        0.759259        0.3736641605839415        0        
C3        C        0.5625        0.759259        0.3736641605839415        0        
C3        C        0.625        0.759259        0.3736641605839415        0        
C3        C        0.6875        0.759259        0.3736641605839415        0        
C3        C        0.75        0.759259        0.3736641605839415        0        
C3        C        0.8125        0.759259        0.3736641605839415        0        
C3        C        0.875        0.759259        0.3736641605839415        0        
C3        C        0.9375        0.759259        0.3736641605839415        0        
C4        C        0.03125        0.703703        0.3736641605839415        0        
C4        C        0.09375        0.703703        0.3736641605839415        0        
C4        C        0.15625        0.703703        0.3736641605839415        0        
C4        C        0.21875        0.703703        0.3736641605839415        0        
C4        C        0.28125        0.703703        0.3736641605839415        0        
C4        C        0.34375        0.703703        0.3736641605839415        0        
C4        C        0.40625        0.703703        0.3736641605839415        0        
C4        C        0.46875        0.703703        0.3736641605839415        0        
C4        C        0.53125        0.703703        0.3736641605839415        0        
C4        C        0.59375        0.703703        0.3736641605839415        0        
C4        C        0.65625        0.703703        0.3736641605839415        0        
C4        C        0.71875        0.703703        0.3736641605839415        0        
C4        C        0.78125        0.703703        0.3736641605839415        0        
C4        C        0.84375        0.703703        0.3736641605839415        0        
C4        C        0.9062500000000001        0.703703        0.3736641605839415        0        
C4        C        0.9687500000000001        0.703703        0.3736641605839415        0        
C1        C        0.0        0.796297        0.3736641605839415        0        
C1        C        0.0625        0.796297        0.3736641605839415        0        
C1        C        0.125        0.796297        0.3736641605839415        0        
C1        C        0.1875        0.796297        0.3736641605839415        0        
C1        C        0.25        0.796297        0.3736641605839415        0        
C1        C        0.3125        0.796297        0.3736641605839415        0        
C1        C        0.375        0.796297        0.3736641605839415        0        
C1        C        0.4375        0.796297        0.3736641605839415        0        
C1        C        0.5        0.796297        0.3736641605839415        0        
C1        C        0.5625        0.796297        0.3736641605839415        0        
C1        C        0.625        0.796297        0.3736641605839415        0        
C1        C        0.6875        0.796297        0.3736641605839415        0        
C1        C        0.75        0.796297        0.3736641605839415        0        
C1        C        0.8125        0.796297        0.3736641605839415        0        
C1        C        0.875        0.796297        0.3736641605839415        0        
C1        C        0.9375        0.796297        0.3736641605839415        0        
C2        C        0.03125        0.851852        0.3736641605839415        0        
C2        C        0.09375        0.851852        0.3736641605839415        0        
C2        C        0.15625        0.851852        0.3736641605839415        0        
C2        C        0.21875        0.851852        0.3736641605839415        0        
C2        C        0.28125        0.851852        0.3736641605839415        0        
C2        C        0.34375        0.851852        0.3736641605839415        0        
C2        C        0.40625        0.851852        0.3736641605839415        0        
C2        C        0.46875        0.851852        0.3736641605839415        0        
C2        C        0.53125        0.851852        0.3736641605839415        0        
C2        C        0.59375        0.851852        0.3736641605839415        0        
C2        C        0.65625        0.851852        0.3736641605839415        0        
C2        C        0.71875        0.851852        0.3736641605839415        0        
C2        C        0.78125        0.851852        0.3736641605839415        0        
C2        C        0.84375        0.851852        0.3736641605839415        0        
C2        C        0.9062500000000001        0.851852        0.3736641605839415        0        
C2        C        0.9687500000000001        0.851852        0.3736641605839415        0        
C3        C        0.0        0.87037        0.3736641605839415        0        
C3        C        0.0625        0.87037        0.3736641605839415        0        
C3        C        0.125        0.87037        0.3736641605839415        0        
C3        C        0.1875        0.87037        0.3736641605839415        0        
C3        C        0.25        0.87037        0.3736641605839415        0        
C3        C        0.3125        0.87037        0.3736641605839415        0        
C3        C        0.375        0.87037        0.3736641605839415        0        
C3        C        0.4375        0.87037        0.3736641605839415        0        
C3        C        0.5        0.87037        0.3736641605839415        0        
C3        C        0.5625        0.87037        0.3736641605839415        0        
C3        C        0.625        0.87037        0.3736641605839415        0        
C3        C        0.6875        0.87037        0.3736641605839415        0        
C3        C        0.75        0.87037        0.3736641605839415        0        
C3        C        0.8125        0.87037        0.3736641605839415        0        
C3        C        0.875        0.87037        0.3736641605839415        0        
C3        C        0.9375        0.87037        0.3736641605839415        0        
C4        C        0.03125        0.814814        0.3736641605839415        0        
C4        C        0.09375        0.814814        0.3736641605839415        0        
C4        C        0.15625        0.814814        0.3736641605839415        0        
C4        C        0.21875        0.814814        0.3736641605839415        0        
C4        C        0.28125        0.814814        0.3736641605839415        0        
C4        C        0.34375        0.814814        0.3736641605839415        0        
C4        C        0.40625        0.814814        0.3736641605839415        0        
C4        C        0.46875        0.814814        0.3736641605839415        0        
C4        C        0.53125        0.814814        0.3736641605839415        0        
C4        C        0.59375        0.814814        0.3736641605839415        0        
C4        C        0.65625        0.814814        0.3736641605839415        0        
C4        C        0.71875        0.814814        0.3736641605839415        0        
C4        C        0.78125        0.814814        0.3736641605839415        0        
C4        C        0.84375        0.814814        0.3736641605839415        0        
C4        C        0.9062500000000001        0.814814        0.3736641605839415        0        
C4        C        0.9687500000000001        0.814814        0.3736641605839415        0        
C1        C        0.0        0.907408        0.3736641605839415        0        
C1        C        0.0625        0.907408        0.3736641605839415        0        
C1        C        0.125        0.907408        0.3736641605839415        0        
C1        C        0.1875        0.907408        0.3736641605839415        0        
C1        C        0.25        0.907408        0.3736641605839415        0        
C1        C        0.3125        0.907408        0.3736641605839415        0        
C1        C        0.375        0.907408        0.3736641605839415        0        
C1        C        0.4375        0.907408        0.3736641605839415        0        
C1        C        0.5        0.907408        0.3736641605839415        0        
C1        C        0.5625        0.907408        0.3736641605839415        0        
C1        C        0.625        0.907408        0.3736641605839415        0        
C1        C        0.6875        0.907408        0.3736641605839415        0        
C1        C        0.75        0.907408        0.3736641605839415        0        
C1        C        0.8125        0.907408        0.3736641605839415        0        
C1        C        0.875        0.907408        0.3736641605839415        0        
C1        C        0.9375        0.907408        0.3736641605839415        0        
C2        C        0.03125        0.962963        0.3736641605839415        0        
C2        C        0.09375        0.962963        0.3736641605839415        0        
C2        C        0.15625        0.962963        0.3736641605839415        0        
C2        C        0.21875        0.962963        0.3736641605839415        0        
C2        C        0.28125        0.962963        0.3736641605839415        0        
C2        C        0.34375        0.962963        0.3736641605839415        0        
C2        C        0.40625        0.962963        0.3736641605839415        0        
C2        C        0.46875        0.962963        0.3736641605839415        0        
C2        C        0.53125        0.962963        0.3736641605839415        0        
C2        C        0.59375        0.962963        0.3736641605839415        0        
C2        C        0.65625        0.962963        0.3736641605839415        0        
C2        C        0.71875        0.962963        0.3736641605839415        0        
C2        C        0.78125        0.962963        0.3736641605839415        0        
C2        C        0.84375        0.962963        0.3736641605839415        0        
C2        C        0.9062500000000001        0.962963        0.3736641605839415        0        
C2        C        0.9687500000000001        0.962963        0.3736641605839415        0        
C3        C        0.0        0.9814809999999999        0.3736641605839415        0        
C3        C        0.0625        0.9814809999999999        0.3736641605839415        0        
C3        C        0.125        0.9814809999999999        0.3736641605839415        0        
C3        C        0.1875        0.9814809999999999        0.3736641605839415        0        
C3        C        0.25        0.9814809999999999        0.3736641605839415        0        
C3        C        0.3125        0.9814809999999999        0.3736641605839415        0        
C3        C        0.375        0.9814809999999999        0.3736641605839415        0        
C3        C        0.4375        0.9814809999999999        0.3736641605839415        0        
C3        C        0.5        0.9814809999999999        0.3736641605839415        0        
C3        C        0.5625        0.9814809999999999        0.3736641605839415        0        
C3        C        0.625        0.9814809999999999        0.3736641605839415        0        
C3        C        0.6875        0.9814809999999999        0.3736641605839415        0        
C3        C        0.75        0.9814809999999999        0.3736641605839415        0        
C3        C        0.8125        0.9814809999999999        0.3736641605839415        0        
C3        C        0.875        0.9814809999999999        0.3736641605839415        0        
C3        C        0.9375        0.9814809999999999        0.3736641605839415        0        
C4        C        0.03125        0.925925        0.3736641605839415        0        
C4        C        0.09375        0.925925        0.3736641605839415        0        
C4        C        0.15625        0.925925        0.3736641605839415        0        
C4        C        0.21875        0.925925        0.3736641605839415        0        
C4        C        0.28125        0.925925        0.3736641605839415        0        
C4        C        0.34375        0.925925        0.3736641605839415        0        
C4        C        0.40625        0.925925        0.3736641605839415        0        
C4        C        0.46875        0.925925        0.3736641605839415        0        
C4        C        0.53125        0.925925        0.3736641605839415        0        
C4        C        0.59375        0.925925        0.3736641605839415        0        
C4        C        0.65625        0.925925        0.3736641605839415        0        
C4        C        0.71875        0.925925        0.3736641605839415        0        
C4        C        0.78125        0.925925        0.3736641605839415        0        
C4        C        0.84375        0.925925        0.3736641605839415        0        
C4        C        0.9062500000000001        0.925925        0.3736641605839415        0        
C4        C        0.9687500000000001        0.925925        0.3736641605839415        0        
C_FG        C        0.0        0.018519        0.618189708029197        0.2        
C2        C        0.03125        0.074075        0.618189708029197        0        
C3        C        0.0        0.092592        0.618189708029197        0        
C4        C        0.03125        0.037037        0.618189708029197        0        
C_FG        C        0.0        0.12963        0.618189708029197        0.2        
C2        C        0.03125        0.185185        0.618189708029197        0        
C3        C        0.0        0.203703        0.618189708029197        0        
C4        C        0.03125        0.148148        0.618189708029197        0        
C_FG        C        0.0        0.24074099999999998        0.618189708029197        0.2        
C2        C        0.03125        0.296297        0.618189708029197        0        
C3        C        0.0        0.314815        0.618189708029197        0        
C4        C        0.03125        0.259259        0.618189708029197        0        
C_FG        C        0.0        0.351852        0.618189708029197        0.2        
C2        C        0.03125        0.407408        0.618189708029197        0        
C3        C        0.0        0.425925        0.618189708029197        0        
C4        C        0.03125        0.37037        0.618189708029197        0        
C_FG        C        0.0        0.46296300000000007        0.618189708029197        0.2        
C2        C        0.03125        0.518519        0.618189708029197        0        
C3        C        0.0        0.537037        0.618189708029197        0        
C4        C        0.03125        0.481481        0.618189708029197        0        
C_FG        C        0.0        0.574075        0.618189708029197        0.2        
C2        C        0.03125        0.62963        0.618189708029197        0        
C3        C        0.0        0.648148        0.618189708029197        0        
C4        C        0.03125        0.592592        0.618189708029197        0        
C1        C        0.0625        0.018519        0.618189708029197        0        
C2        C        0.09375        0.074075        0.618189708029197        0        
C3        C        0.0625        0.092592        0.618189708029197        0        
C4        C        0.09375        0.037037        0.618189708029197        0        
C1        C        0.0625        0.12963        0.618189708029197        0        
C2        C        0.09375        0.185185        0.618189708029197        0        
C3        C        0.0625        0.203703        0.618189708029197        0        
C4        C        0.09375        0.148148        0.618189708029197        0        
C1        C        0.0625        0.24074099999999998        0.618189708029197        0        
C2        C        0.09375        0.296297        0.618189708029197        0        
C3        C        0.0625        0.314815        0.618189708029197        0        
C4        C        0.09375        0.259259        0.618189708029197        0        
C1        C        0.0625        0.351852        0.618189708029197        0        
C2        C        0.09375        0.407408        0.618189708029197        0        
C3        C        0.0625        0.425925        0.618189708029197        0        
C4        C        0.09375        0.37037        0.618189708029197        0        
C1        C        0.0625        0.46296300000000007        0.618189708029197        0        
C2        C        0.09375        0.518519        0.618189708029197        0        
C3        C        0.0625        0.537037        0.618189708029197        0        
C4        C        0.09375        0.481481        0.618189708029197        0        
C1        C        0.0625        0.574075        0.618189708029197        0        
C2        C        0.09375        0.62963        0.618189708029197        0        
C3        C        0.0625        0.648148        0.618189708029197        0        
C4        C        0.09375        0.592592        0.618189708029197        0        
C_FG        C        0.125        0.018519        0.618189708029197        0.2        
C2        C        0.15625        0.074075        0.618189708029197        0        
C3        C        0.125        0.092592        0.618189708029197        0        
C4        C        0.15625        0.037037        0.618189708029197        0        
C_FG        C        0.125        0.12963        0.618189708029197        0.2        
C2        C        0.15625        0.185185        0.618189708029197        0        
C3        C        0.125        0.203703        0.618189708029197        0        
C4        C        0.15625        0.148148        0.618189708029197        0        
C_FG        C        0.125        0.24074099999999998        0.618189708029197        0.2        
C2        C        0.15625        0.296297        0.618189708029197        0        
C3        C        0.125        0.314815        0.618189708029197        0        
C4        C        0.15625        0.259259        0.618189708029197        0        
C_FG        C        0.125        0.351852        0.618189708029197        0.2        
C2        C        0.15625        0.407408        0.618189708029197        0        
C3        C        0.125        0.425925        0.618189708029197        0        
C4        C        0.15625        0.37037        0.618189708029197        0        
C_FG        C        0.125        0.46296300000000007        0.618189708029197        0.2        
C2        C        0.15625        0.518519        0.618189708029197        0        
C3        C        0.125        0.537037        0.618189708029197        0        
C4        C        0.15625        0.481481        0.618189708029197        0        
C_FG        C        0.125        0.574075        0.618189708029197        0.2        
C2        C        0.15625        0.62963        0.618189708029197        0        
C3        C        0.125        0.648148        0.618189708029197        0        
C4        C        0.15625        0.592592        0.618189708029197        0        
C1        C        0.1875        0.018519        0.618189708029197        0        
C2        C        0.21875        0.074075        0.618189708029197        0        
C3        C        0.1875        0.092592        0.618189708029197        0        
C4        C        0.21875        0.037037        0.618189708029197        0        
C1        C        0.1875        0.12963        0.618189708029197        0        
C2        C        0.21875        0.185185        0.618189708029197        0        
C3        C        0.1875        0.203703        0.618189708029197        0        
C4        C        0.21875        0.148148        0.618189708029197        0        
C1        C        0.1875        0.24074099999999998        0.618189708029197        0        
C2        C        0.21875        0.296297        0.618189708029197        0        
C3        C        0.1875        0.314815        0.618189708029197        0        
C4        C        0.21875        0.259259        0.618189708029197        0        
C1        C        0.1875        0.351852        0.618189708029197        0        
C2        C        0.21875        0.407408        0.618189708029197        0        
C3        C        0.1875        0.425925        0.618189708029197        0        
C4        C        0.21875        0.37037        0.618189708029197        0        
C1        C        0.1875        0.46296300000000007        0.618189708029197        0        
C2        C        0.21875        0.518519        0.618189708029197        0        
C3        C        0.1875        0.537037        0.618189708029197        0        
C4        C        0.21875        0.481481        0.618189708029197        0        
C1        C        0.1875        0.574075        0.618189708029197        0        
C2        C        0.21875        0.62963        0.618189708029197        0        
C3        C        0.1875        0.648148        0.618189708029197        0        
C4        C        0.21875        0.592592        0.618189708029197        0        
C_FG        C        0.25        0.018519        0.618189708029197        0.2        
C2        C        0.28125        0.074075        0.618189708029197        0        
C3        C        0.25        0.092592        0.618189708029197        0        
C4        C        0.28125        0.037037        0.618189708029197        0        
C_FG        C        0.25        0.12963        0.618189708029197        0.2        
C2        C        0.28125        0.185185        0.618189708029197        0        
C3        C        0.25        0.203703        0.618189708029197        0        
C4        C        0.28125        0.148148        0.618189708029197        0        
C_FG        C        0.25        0.24074099999999998        0.618189708029197        0.2        
C2        C        0.28125        0.296297        0.618189708029197        0        
C3        C        0.25        0.314815        0.618189708029197        0        
C4        C        0.28125        0.259259        0.618189708029197        0        
C_FG        C        0.25        0.351852        0.618189708029197        0.2        
C2        C        0.28125        0.407408        0.618189708029197        0        
C3        C        0.25        0.425925        0.618189708029197        0        
C4        C        0.28125        0.37037        0.618189708029197        0        
C_FG        C        0.25        0.46296300000000007        0.618189708029197        0.2        
C2        C        0.28125        0.518519        0.618189708029197        0        
C3        C        0.25        0.537037        0.618189708029197        0        
C4        C        0.28125        0.481481        0.618189708029197        0        
C_FG        C        0.25        0.574075        0.618189708029197        0.2        
C2        C        0.28125        0.62963        0.618189708029197        0        
C3        C        0.25        0.648148        0.618189708029197        0        
C4        C        0.28125        0.592592        0.618189708029197        0        
C1        C        0.3125        0.018519        0.618189708029197        0        
C2        C        0.34375        0.074075        0.618189708029197        0        
C3        C        0.3125        0.092592        0.618189708029197        0        
C4        C        0.34375        0.037037        0.618189708029197        0        
C1        C        0.3125        0.12963        0.618189708029197        0        
C2        C        0.34375        0.185185        0.618189708029197        0        
C3        C        0.3125        0.203703        0.618189708029197        0        
C4        C        0.34375        0.148148        0.618189708029197        0        
C1        C        0.3125        0.24074099999999998        0.618189708029197        0        
C2        C        0.34375        0.296297        0.618189708029197        0        
C3        C        0.3125        0.314815        0.618189708029197        0        
C4        C        0.34375        0.259259        0.618189708029197        0        
C1        C        0.3125        0.351852        0.618189708029197        0        
C2        C        0.34375        0.407408        0.618189708029197        0        
C3        C        0.3125        0.425925        0.618189708029197        0        
C4        C        0.34375        0.37037        0.618189708029197        0        
C1        C        0.3125        0.46296300000000007        0.618189708029197        0        
C2        C        0.34375        0.518519        0.618189708029197        0        
C3        C        0.3125        0.537037        0.618189708029197        0        
C4        C        0.34375        0.481481        0.618189708029197        0        
C1        C        0.3125        0.574075        0.618189708029197        0        
C2        C        0.34375        0.62963        0.618189708029197        0        
C3        C        0.3125        0.648148        0.618189708029197        0        
C4        C        0.34375        0.592592        0.618189708029197        0        
C_FG        C        0.375        0.018519        0.618189708029197        0.2        
C2        C        0.40625        0.074075        0.618189708029197        0        
C3        C        0.375        0.092592        0.618189708029197        0        
C4        C        0.40625        0.037037        0.618189708029197        0        
C_FG        C        0.375        0.12963        0.618189708029197        0.2        
C2        C        0.40625        0.185185        0.618189708029197        0        
C3        C        0.375        0.203703        0.618189708029197        0        
C4        C        0.40625        0.148148        0.618189708029197        0        
C_FG        C        0.375        0.24074099999999998        0.618189708029197        0.2        
C2        C        0.40625        0.296297        0.618189708029197        0        
C3        C        0.375        0.314815        0.618189708029197        0        
C4        C        0.40625        0.259259        0.618189708029197        0        
C_FG        C        0.375        0.351852        0.618189708029197        0.2        
C2        C        0.40625        0.407408        0.618189708029197        0        
C3        C        0.375        0.425925        0.618189708029197        0        
C4        C        0.40625        0.37037        0.618189708029197        0        
C_FG        C        0.375        0.46296300000000007        0.618189708029197        0.2        
C2        C        0.40625        0.518519        0.618189708029197        0        
C3        C        0.375        0.537037        0.618189708029197        0        
C4        C        0.40625        0.481481        0.618189708029197        0        
C_FG        C        0.375        0.574075        0.618189708029197        0.2        
C2        C        0.40625        0.62963        0.618189708029197        0        
C3        C        0.375        0.648148        0.618189708029197        0        
C4        C        0.40625        0.592592        0.618189708029197        0        
C1        C        0.4375        0.018519        0.618189708029197        0        
C2        C        0.46875        0.074075        0.618189708029197        0        
C3        C        0.4375        0.092592        0.618189708029197        0        
C4        C        0.46875        0.037037        0.618189708029197        0        
C1        C        0.4375        0.12963        0.618189708029197        0        
C2        C        0.46875        0.185185        0.618189708029197        0        
C3        C        0.4375        0.203703        0.618189708029197        0        
C4        C        0.46875        0.148148        0.618189708029197        0        
C1        C        0.4375        0.24074099999999998        0.618189708029197        0        
C2        C        0.46875        0.296297        0.618189708029197        0        
C3        C        0.4375        0.314815        0.618189708029197        0        
C4        C        0.46875        0.259259        0.618189708029197        0        
C1        C        0.4375        0.351852        0.618189708029197        0        
C2        C        0.46875        0.407408        0.618189708029197        0        
C3        C        0.4375        0.425925        0.618189708029197        0        
C4        C        0.46875        0.37037        0.618189708029197        0        
C1        C        0.4375        0.46296300000000007        0.618189708029197        0        
C2        C        0.46875        0.518519        0.618189708029197        0        
C3        C        0.4375        0.537037        0.618189708029197        0        
C4        C        0.46875        0.481481        0.618189708029197        0        
C1        C        0.4375        0.574075        0.618189708029197        0        
C2        C        0.46875        0.62963        0.618189708029197        0        
C3        C        0.4375        0.648148        0.618189708029197        0        
C4        C        0.46875        0.592592        0.618189708029197        0        
C_FG        C        0.5        0.018519        0.618189708029197        0.2        
C2        C        0.53125        0.074075        0.618189708029197        0        
C3        C        0.5        0.092592        0.618189708029197        0        
C4        C        0.53125        0.037037        0.618189708029197        0        
C_FG        C        0.5        0.12963        0.618189708029197        0.2        
C2        C        0.53125        0.185185        0.618189708029197        0        
C3        C        0.5        0.203703        0.618189708029197        0        
C4        C        0.53125        0.148148        0.618189708029197        0        
C_FG        C        0.5        0.24074099999999998        0.618189708029197        0.2        
C2        C        0.53125        0.296297        0.618189708029197        0        
C3        C        0.5        0.314815        0.618189708029197        0        
C4        C        0.53125        0.259259        0.618189708029197        0        
C_FG        C        0.5        0.351852        0.618189708029197        0.2        
C2        C        0.53125        0.407408        0.618189708029197        0        
C3        C        0.5        0.425925        0.618189708029197        0        
C4        C        0.53125        0.37037        0.618189708029197        0        
C_FG        C        0.5        0.46296300000000007        0.618189708029197        0.2        
C2        C        0.53125        0.518519        0.618189708029197        0        
C3        C        0.5        0.537037        0.618189708029197        0        
C4        C        0.53125        0.481481        0.618189708029197        0        
C_FG        C        0.5        0.574075        0.618189708029197        0.2        
C2        C        0.53125        0.62963        0.618189708029197        0        
C3        C        0.5        0.648148        0.618189708029197        0        
C4        C        0.53125        0.592592        0.618189708029197        0        
C1        C        0.5625        0.018519        0.618189708029197        0        
C2        C        0.59375        0.074075        0.618189708029197        0        
C3        C        0.5625        0.092592        0.618189708029197        0        
C4        C        0.59375        0.037037        0.618189708029197        0        
C1        C        0.5625        0.12963        0.618189708029197        0        
C2        C        0.59375        0.185185        0.618189708029197        0        
C3        C        0.5625        0.203703        0.618189708029197        0        
C4        C        0.59375        0.148148        0.618189708029197        0        
C1        C        0.5625        0.24074099999999998        0.618189708029197        0        
C2        C        0.59375        0.296297        0.618189708029197        0        
C3        C        0.5625        0.314815        0.618189708029197        0        
C4        C        0.59375        0.259259        0.618189708029197        0        
C1        C        0.5625        0.351852        0.618189708029197        0        
C2        C        0.59375        0.407408        0.618189708029197        0        
C3        C        0.5625        0.425925        0.618189708029197        0        
C4        C        0.59375        0.37037        0.618189708029197        0        
C1        C        0.5625        0.46296300000000007        0.618189708029197        0        
C2        C        0.59375        0.518519        0.618189708029197        0        
C3        C        0.5625        0.537037        0.618189708029197        0        
C4        C        0.59375        0.481481        0.618189708029197        0        
C1        C        0.5625        0.574075        0.618189708029197        0        
C2        C        0.59375        0.62963        0.618189708029197        0        
C3        C        0.5625        0.648148        0.618189708029197        0        
C4        C        0.59375        0.592592        0.618189708029197        0        
C_FG        C        0.625        0.018519        0.618189708029197        0.2        
C2        C        0.65625        0.074075        0.618189708029197        0        
C3        C        0.625        0.092592        0.618189708029197        0        
C4        C        0.65625        0.037037        0.618189708029197        0        
C_FG        C        0.625        0.12963        0.618189708029197        0.2        
C2        C        0.65625        0.185185        0.618189708029197        0        
C3        C        0.625        0.203703        0.618189708029197        0        
C4        C        0.65625        0.148148        0.618189708029197        0        
C_FG        C        0.625        0.24074099999999998        0.618189708029197        0.2        
C2        C        0.65625        0.296297        0.618189708029197        0        
C3        C        0.625        0.314815        0.618189708029197        0        
C4        C        0.65625        0.259259        0.618189708029197        0        
C_FG        C        0.625        0.351852        0.618189708029197        0.2        
C2        C        0.65625        0.407408        0.618189708029197        0        
C3        C        0.625        0.425925        0.618189708029197        0        
C4        C        0.65625        0.37037        0.618189708029197        0        
C_FG        C        0.625        0.46296300000000007        0.618189708029197        0.2        
C2        C        0.65625        0.518519        0.618189708029197        0        
C3        C        0.625        0.537037        0.618189708029197        0        
C4        C        0.65625        0.481481        0.618189708029197        0        
C_FG        C        0.625        0.574075        0.618189708029197        0.2        
C2        C        0.65625        0.62963        0.618189708029197        0        
C3        C        0.625        0.648148        0.618189708029197        0        
C4        C        0.65625        0.592592        0.618189708029197        0        
C1        C        0.6875        0.018519        0.618189708029197        0        
C2        C        0.71875        0.074075        0.618189708029197        0        
C3        C        0.6875        0.092592        0.618189708029197        0        
C4        C        0.71875        0.037037        0.618189708029197        0        
C1        C        0.6875        0.12963        0.618189708029197        0        
C2        C        0.71875        0.185185        0.618189708029197        0        
C3        C        0.6875        0.203703        0.618189708029197        0        
C4        C        0.71875        0.148148        0.618189708029197        0        
C1        C        0.6875        0.24074099999999998        0.618189708029197        0        
C2        C        0.71875        0.296297        0.618189708029197        0        
C3        C        0.6875        0.314815        0.618189708029197        0        
C4        C        0.71875        0.259259        0.618189708029197        0        
C1        C        0.6875        0.351852        0.618189708029197        0        
C2        C        0.71875        0.407408        0.618189708029197        0        
C3        C        0.6875        0.425925        0.618189708029197        0        
C4        C        0.71875        0.37037        0.618189708029197        0        
C1        C        0.6875        0.46296300000000007        0.618189708029197        0        
C2        C        0.71875        0.518519        0.618189708029197        0        
C3        C        0.6875        0.537037        0.618189708029197        0        
C4        C        0.71875        0.481481        0.618189708029197        0        
C1        C        0.6875        0.574075        0.618189708029197        0        
C2        C        0.71875        0.62963        0.618189708029197        0        
C3        C        0.6875        0.648148        0.618189708029197        0        
C4        C        0.71875        0.592592        0.618189708029197        0        
C_FG        C        0.75        0.018519        0.618189708029197        0.2        
C2        C        0.78125        0.074075        0.618189708029197        0        
C3        C        0.75        0.092592        0.618189708029197        0        
C4        C        0.78125        0.037037        0.618189708029197        0        
C_FG        C        0.75        0.12963        0.618189708029197        0.2        
C2        C        0.78125        0.185185        0.618189708029197        0        
C3        C        0.75        0.203703        0.618189708029197        0        
C4        C        0.78125        0.148148        0.618189708029197        0        
C_FG        C        0.75        0.24074099999999998        0.618189708029197        0.2        
C2        C        0.78125        0.296297        0.618189708029197        0        
C3        C        0.75        0.314815        0.618189708029197        0        
C4        C        0.78125        0.259259        0.618189708029197        0        
C_FG        C        0.75        0.351852        0.618189708029197        0.2        
C2        C        0.78125        0.407408        0.618189708029197        0        
C3        C        0.75        0.425925        0.618189708029197        0        
C4        C        0.78125        0.37037        0.618189708029197        0        
C_FG        C        0.75        0.46296300000000007        0.618189708029197        0.2        
C2        C        0.78125        0.518519        0.618189708029197        0        
C3        C        0.75        0.537037        0.618189708029197        0        
C4        C        0.78125        0.481481        0.618189708029197        0        
C_FG        C        0.75        0.574075        0.618189708029197        0.2        
C2        C        0.78125        0.62963        0.618189708029197        0        
C3        C        0.75        0.648148        0.618189708029197        0        
C4        C        0.78125        0.592592        0.618189708029197        0        
C1        C        0.8125        0.018519        0.618189708029197        0        
C2        C        0.84375        0.074075        0.618189708029197        0        
C3        C        0.8125        0.092592        0.618189708029197        0        
C4        C        0.84375        0.037037        0.618189708029197        0        
C1        C        0.8125        0.12963        0.618189708029197        0        
C2        C        0.84375        0.185185        0.618189708029197        0        
C3        C        0.8125        0.203703        0.618189708029197        0        
C4        C        0.84375        0.148148        0.618189708029197        0        
C1        C        0.8125        0.24074099999999998        0.618189708029197        0        
C2        C        0.84375        0.296297        0.618189708029197        0        
C3        C        0.8125        0.314815        0.618189708029197        0        
C4        C        0.84375        0.259259        0.618189708029197        0        
C1        C        0.8125        0.351852        0.618189708029197        0        
C2        C        0.84375        0.407408        0.618189708029197        0        
C3        C        0.8125        0.425925        0.618189708029197        0        
C4        C        0.84375        0.37037        0.618189708029197        0        
C1        C        0.8125        0.46296300000000007        0.618189708029197        0        
C2        C        0.84375        0.518519        0.618189708029197        0        
C3        C        0.8125        0.537037        0.618189708029197        0        
C4        C        0.84375        0.481481        0.618189708029197        0        
C1        C        0.8125        0.574075        0.618189708029197        0        
C2        C        0.84375        0.62963        0.618189708029197        0        
C3        C        0.8125        0.648148        0.618189708029197        0        
C4        C        0.84375        0.592592        0.618189708029197        0        
C_FG        C        0.875        0.018519        0.618189708029197        0.2        
C2        C        0.9062500000000001        0.074075        0.618189708029197        0        
C3        C        0.875        0.092592        0.618189708029197        0        
C4        C        0.9062500000000001        0.037037        0.618189708029197        0        
C_FG        C        0.875        0.12963        0.618189708029197        0.2        
C2        C        0.9062500000000001        0.185185        0.618189708029197        0        
C3        C        0.875        0.203703        0.618189708029197        0        
C4        C        0.9062500000000001        0.148148        0.618189708029197        0        
C_FG        C        0.875        0.24074099999999998        0.618189708029197        0.2        
C2        C        0.9062500000000001        0.296297        0.618189708029197        0        
C3        C        0.875        0.314815        0.618189708029197        0        
C4        C        0.9062500000000001        0.259259        0.618189708029197        0        
C_FG        C        0.875        0.351852        0.618189708029197        0.2        
C2        C        0.9062500000000001        0.407408        0.618189708029197        0        
C3        C        0.875        0.425925        0.618189708029197        0        
C4        C        0.9062500000000001        0.37037        0.618189708029197        0        
C_FG        C        0.875        0.46296300000000007        0.618189708029197        0.2        
C2        C        0.9062500000000001        0.518519        0.618189708029197        0        
C3        C        0.875        0.537037        0.618189708029197        0        
C4        C        0.9062500000000001        0.481481        0.618189708029197        0        
C_FG        C        0.875        0.574075        0.618189708029197        0.2        
C2        C        0.9062500000000001        0.62963        0.618189708029197        0        
C3        C        0.875        0.648148        0.618189708029197        0        
C4        C        0.9062500000000001        0.592592        0.618189708029197        0        
C1        C        0.9375        0.018519        0.618189708029197        0        
C2        C        0.9687500000000001        0.074075        0.618189708029197        0        
C3        C        0.9375        0.092592        0.618189708029197        0        
C4        C        0.9687500000000001        0.037037        0.618189708029197        0        
C1        C        0.9375        0.12963        0.618189708029197        0        
C2        C        0.9687500000000001        0.185185        0.618189708029197        0        
C3        C        0.9375        0.203703        0.618189708029197        0        
C4        C        0.9687500000000001        0.148148        0.618189708029197        0        
C1        C        0.9375        0.24074099999999998        0.618189708029197        0        
C2        C        0.9687500000000001        0.296297        0.618189708029197        0        
C3        C        0.9375        0.314815        0.618189708029197        0        
C4        C        0.9687500000000001        0.259259        0.618189708029197        0        
C1        C        0.9375        0.351852        0.618189708029197        0        
C2        C        0.9687500000000001        0.407408        0.618189708029197        0        
C3        C        0.9375        0.425925        0.618189708029197        0        
C4        C        0.9687500000000001        0.37037        0.618189708029197        0        
C1        C        0.9375        0.46296300000000007        0.618189708029197        0        
C2        C        0.9687500000000001        0.518519        0.618189708029197        0        
C3        C        0.9375        0.537037        0.618189708029197        0        
C4        C        0.9687500000000001        0.481481        0.618189708029197        0        
C1        C        0.9375        0.574075        0.618189708029197        0        
C2        C        0.9687500000000001        0.62963        0.618189708029197        0        
C3        C        0.9375        0.648148        0.618189708029197        0        
C4        C        0.9687500000000001        0.592592        0.618189708029197        0        
C_FG        C        0.0        0.685186        0.618189708029197        0.2        
C1        C        0.0625        0.685186        0.618189708029197        0        
C_FG        C        0.125        0.685186        0.618189708029197        0.2        
C1        C        0.1875        0.685186        0.618189708029197        0        
C_FG        C        0.25        0.685186        0.618189708029197        0.2        
C1        C        0.3125        0.685186        0.618189708029197        0        
C_FG        C        0.375        0.685186        0.618189708029197        0.2        
C1        C        0.4375        0.685186        0.618189708029197        0        
C_FG        C        0.5        0.685186        0.618189708029197        0.2        
C1        C        0.5625        0.685186        0.618189708029197        0        
C_FG        C        0.625        0.685186        0.618189708029197        0.2        
C1        C        0.6875        0.685186        0.618189708029197        0        
C_FG        C        0.75        0.685186        0.618189708029197        0.2        
C1        C        0.8125        0.685186        0.618189708029197        0        
C_FG        C        0.875        0.685186        0.618189708029197        0.2        
C1        C        0.9375        0.685186        0.618189708029197        0        
C2        C        0.03125        0.740741        0.618189708029197        0        
C2        C        0.09375        0.740741        0.618189708029197        0        
C2        C        0.15625        0.740741        0.618189708029197        0        
C2        C        0.21875        0.740741        0.618189708029197        0        
C2        C        0.28125        0.740741        0.618189708029197        0        
C2        C        0.34375        0.740741        0.618189708029197        0        
C2        C        0.40625        0.740741        0.618189708029197        0        
C2        C        0.46875        0.740741        0.618189708029197        0        
C2        C        0.53125        0.740741        0.618189708029197        0        
C2        C        0.59375        0.740741        0.618189708029197        0        
C2        C        0.65625        0.740741        0.618189708029197        0        
C2        C        0.71875        0.740741        0.618189708029197        0        
C2        C        0.78125        0.740741        0.618189708029197        0        
C2        C        0.84375        0.740741        0.618189708029197        0        
C2        C        0.9062500000000001        0.740741        0.618189708029197        0        
C2        C        0.9687500000000001        0.740741        0.618189708029197        0        
C3        C        0.0        0.759259        0.618189708029197        0        
C3        C        0.0625        0.759259        0.618189708029197        0        
C3        C        0.125        0.759259        0.618189708029197        0        
C3        C        0.1875        0.759259        0.618189708029197        0        
C3        C        0.25        0.759259        0.618189708029197        0        
C3        C        0.3125        0.759259        0.618189708029197        0        
C3        C        0.375        0.759259        0.618189708029197        0        
C3        C        0.4375        0.759259        0.618189708029197        0        
C3        C        0.5        0.759259        0.618189708029197        0        
C3        C        0.5625        0.759259        0.618189708029197        0        
C3        C        0.625        0.759259        0.618189708029197        0        
C3        C        0.6875        0.759259        0.618189708029197        0        
C3        C        0.75        0.759259        0.618189708029197        0        
C3        C        0.8125        0.759259        0.618189708029197        0        
C3        C        0.875        0.759259        0.618189708029197        0        
C3        C        0.9375        0.759259        0.618189708029197        0        
C4        C        0.03125        0.703703        0.618189708029197        0        
C4        C        0.09375        0.703703        0.618189708029197        0        
C4        C        0.15625        0.703703        0.618189708029197        0        
C4        C        0.21875        0.703703        0.618189708029197        0        
C4        C        0.28125        0.703703        0.618189708029197        0        
C4        C        0.34375        0.703703        0.618189708029197        0        
C4        C        0.40625        0.703703        0.618189708029197        0        
C4        C        0.46875        0.703703        0.618189708029197        0        
C4        C        0.53125        0.703703        0.618189708029197        0        
C4        C        0.59375        0.703703        0.618189708029197        0        
C4        C        0.65625        0.703703        0.618189708029197        0        
C4        C        0.71875        0.703703        0.618189708029197        0        
C4        C        0.78125        0.703703        0.618189708029197        0        
C4        C        0.84375        0.703703        0.618189708029197        0        
C4        C        0.9062500000000001        0.703703        0.618189708029197        0        
C4        C        0.9687500000000001        0.703703        0.618189708029197        0        
C_FG        C        0.0        0.796297        0.618189708029197        0.2        
C1        C        0.0625        0.796297        0.618189708029197        0        
C_FG        C        0.125        0.796297        0.618189708029197        0.2        
C1        C        0.1875        0.796297        0.618189708029197        0        
C_FG        C        0.25        0.796297        0.618189708029197        0.2        
C1        C        0.3125        0.796297        0.618189708029197        0        
C_FG        C        0.375        0.796297        0.618189708029197        0.2        
C1        C        0.4375        0.796297        0.618189708029197        0        
C_FG        C        0.5        0.796297        0.618189708029197        0.2        
C1        C        0.5625        0.796297        0.618189708029197        0        
C_FG        C        0.625        0.796297        0.618189708029197        0.2        
C1        C        0.6875        0.796297        0.618189708029197        0        
C_FG        C        0.75        0.796297        0.618189708029197        0.2        
C1        C        0.8125        0.796297        0.618189708029197        0        
C_FG        C        0.875        0.796297        0.618189708029197        0.2        
C1        C        0.9375        0.796297        0.618189708029197        0        
C2        C        0.03125        0.851852        0.618189708029197        0        
C2        C        0.09375        0.851852        0.618189708029197        0        
C2        C        0.15625        0.851852        0.618189708029197        0        
C2        C        0.21875        0.851852        0.618189708029197        0        
C2        C        0.28125        0.851852        0.618189708029197        0        
C2        C        0.34375        0.851852        0.618189708029197        0        
C2        C        0.40625        0.851852        0.618189708029197        0        
C2        C        0.46875        0.851852        0.618189708029197        0        
C2        C        0.53125        0.851852        0.618189708029197        0        
C2        C        0.59375        0.851852        0.618189708029197        0        
C2        C        0.65625        0.851852        0.618189708029197        0        
C2        C        0.71875        0.851852        0.618189708029197        0        
C2        C        0.78125        0.851852        0.618189708029197        0        
C2        C        0.84375        0.851852        0.618189708029197        0        
C2        C        0.9062500000000001        0.851852        0.618189708029197        0        
C2        C        0.9687500000000001        0.851852        0.618189708029197        0        
C3        C        0.0        0.87037        0.618189708029197        0        
C3        C        0.0625        0.87037        0.618189708029197        0        
C3        C        0.125        0.87037        0.618189708029197        0        
C3        C        0.1875        0.87037        0.618189708029197        0        
C3        C        0.25        0.87037        0.618189708029197        0        
C3        C        0.3125        0.87037        0.618189708029197        0        
C3        C        0.375        0.87037        0.618189708029197        0        
C3        C        0.4375        0.87037        0.618189708029197        0        
C3        C        0.5        0.87037        0.618189708029197        0        
C3        C        0.5625        0.87037        0.618189708029197        0        
C3        C        0.625        0.87037        0.618189708029197        0        
C3        C        0.6875        0.87037        0.618189708029197        0        
C3        C        0.75        0.87037        0.618189708029197        0        
C3        C        0.8125        0.87037        0.618189708029197        0        
C3        C        0.875        0.87037        0.618189708029197        0        
C3        C        0.9375        0.87037        0.618189708029197        0        
C4        C        0.03125        0.814814        0.618189708029197        0        
C4        C        0.09375        0.814814        0.618189708029197        0        
C4        C        0.15625        0.814814        0.618189708029197        0        
C4        C        0.21875        0.814814        0.618189708029197        0        
C4        C        0.28125        0.814814        0.618189708029197        0        
C4        C        0.34375        0.814814        0.618189708029197        0        
C4        C        0.40625        0.814814        0.618189708029197        0        
C4        C        0.46875        0.814814        0.618189708029197        0        
C4        C        0.53125        0.814814        0.618189708029197        0        
C4        C        0.59375        0.814814        0.618189708029197        0        
C4        C        0.65625        0.814814        0.618189708029197        0        
C4        C        0.71875        0.814814        0.618189708029197        0        
C4        C        0.78125        0.814814        0.618189708029197        0        
C4        C        0.84375        0.814814        0.618189708029197        0        
C4        C        0.9062500000000001        0.814814        0.618189708029197        0        
C4        C        0.9687500000000001        0.814814        0.618189708029197        0        
C_FG        C        0.0        0.907408        0.618189708029197        0.2        
C1        C        0.0625        0.907408        0.618189708029197        0        
C_FG        C        0.125        0.907408        0.618189708029197        0.2        
C1        C        0.1875        0.907408        0.618189708029197        0        
C_FG        C        0.25        0.907408        0.618189708029197        0.2        
C1        C        0.3125        0.907408        0.618189708029197        0        
C_FG        C        0.375        0.907408        0.618189708029197        0.2        
C1        C        0.4375        0.907408        0.618189708029197        0        
C_FG        C        0.5        0.907408        0.618189708029197        0.2        
C1        C        0.5625        0.907408        0.618189708029197        0        
C_FG        C        0.625        0.907408        0.618189708029197        0.2        
C1        C        0.6875        0.907408        0.618189708029197        0        
C_FG        C        0.75        0.907408        0.618189708029197        0.2        
C1        C        0.8125        0.907408        0.618189708029197        0        
C_FG        C        0.875        0.907408        0.618189708029197        0.2        
C1        C        0.9375        0.907408        0.618189708029197        0        
C2        C        0.03125        0.962963        0.618189708029197        0        
C2        C        0.09375        0.962963        0.618189708029197        0        
C2        C        0.15625        0.962963        0.618189708029197        0        
C2        C        0.21875        0.962963        0.618189708029197        0        
C2        C        0.28125        0.962963        0.618189708029197        0        
C2        C        0.34375        0.962963        0.618189708029197        0        
C2        C        0.40625        0.962963        0.618189708029197        0        
C2        C        0.46875        0.962963        0.618189708029197        0        
C2        C        0.53125        0.962963        0.618189708029197        0        
C2        C        0.59375        0.962963        0.618189708029197        0        
C2        C        0.65625        0.962963        0.618189708029197        0        
C2        C        0.71875        0.962963        0.618189708029197        0        
C2        C        0.78125        0.962963        0.618189708029197        0        
C2        C        0.84375        0.962963        0.618189708029197        0        
C2        C        0.9062500000000001        0.962963        0.618189708029197        0        
C2        C        0.9687500000000001        0.962963        0.618189708029197        0        
C3        C        0.0        0.9814809999999999        0.618189708029197        0        
C3        C        0.0625        0.9814809999999999        0.618189708029197        0        
C3        C        0.125        0.9814809999999999        0.618189708029197        0        
C3        C        0.1875        0.9814809999999999        0.618189708029197        0        
C3        C        0.25        0.9814809999999999        0.618189708029197        0        
C3        C        0.3125        0.9814809999999999        0.618189708029197        0        
C3        C        0.375        0.9814809999999999        0.618189708029197        0        
C3        C        0.4375        0.9814809999999999        0.618189708029197        0        
C3        C        0.5        0.9814809999999999        0.618189708029197        0        
C3        C        0.5625        0.9814809999999999        0.618189708029197        0        
C3        C        0.625        0.9814809999999999        0.618189708029197        0        
C3        C        0.6875        0.9814809999999999        0.618189708029197        0        
C3        C        0.75        0.9814809999999999        0.618189708029197        0        
C3        C        0.8125        0.9814809999999999        0.618189708029197        0        
C3        C        0.875        0.9814809999999999        0.618189708029197        0        
C3        C        0.9375        0.9814809999999999        0.618189708029197        0        
C4        C        0.03125        0.925925        0.618189708029197        0        
C4        C        0.09375        0.925925        0.618189708029197        0        
C4        C        0.15625        0.925925        0.618189708029197        0        
C4        C        0.21875        0.925925        0.618189708029197        0        
C4        C        0.28125        0.925925        0.618189708029197        0        
C4        C        0.34375        0.925925        0.618189708029197        0        
C4        C        0.40625        0.925925        0.618189708029197        0        
C4        C        0.46875        0.925925        0.618189708029197        0        
C4        C        0.53125        0.925925        0.618189708029197        0        
C4        C        0.59375        0.925925        0.618189708029197        0        
C4        C        0.65625        0.925925        0.618189708029197        0        
C4        C        0.71875        0.925925        0.618189708029197        0        
C4        C        0.78125        0.925925        0.618189708029197        0        
C4        C        0.84375        0.925925        0.618189708029197        0        
C4        C        0.9062500000000001        0.925925        0.618189708029197        0        
C4        C        0.9687500000000001        0.925925        0.618189708029197        0        
O_OH        O        0.0        0.018519        0.024540072992700723        -0.64        
O_OH        O        0.0        0.12963        0.024540072992700723        -0.64        
O_OH        O        0.0        0.24074099999999998        0.024540072992700723        -0.64        
O_OH        O        0.0        0.351852        0.024540072992700723        -0.64        
O_OH        O        0.0        0.46296300000000007        0.024540072992700723        -0.64        
O_OH        O        0.0        0.574075        0.024540072992700723        -0.64        
O_OH        O        0.125        0.018519        0.024540072992700723        -0.64        
O_OH        O        0.125        0.12963        0.024540072992700723        -0.64        
O_OH        O        0.125        0.24074099999999998        0.024540072992700723        -0.64        
O_OH        O        0.125        0.351852        0.024540072992700723        -0.64        
O_OH        O        0.125        0.46296300000000007        0.024540072992700723        -0.64        
O_OH        O        0.125        0.574075        0.024540072992700723        -0.64        
O_OH        O        0.25        0.018519        0.024540072992700723        -0.64        
O_OH        O        0.25        0.12963        0.024540072992700723        -0.64        
O_OH        O        0.25        0.24074099999999998        0.024540072992700723        -0.64        
O_OH        O        0.25        0.351852        0.024540072992700723        -0.64        
O_OH        O        0.25        0.46296300000000007        0.024540072992700723        -0.64        
O_OH        O        0.25        0.574075        0.024540072992700723        -0.64        
O_OH        O        0.375        0.018519        0.024540072992700723        -0.64        
O_OH        O        0.375        0.12963        0.024540072992700723        -0.64        
O_OH        O        0.375        0.24074099999999998        0.024540072992700723        -0.64        
O_OH        O        0.375        0.351852        0.024540072992700723        -0.64        
O_OH        O        0.375        0.46296300000000007        0.024540072992700723        -0.64        
O_OH        O        0.375        0.574075        0.024540072992700723        -0.64        
O_OH        O        0.5        0.018519        0.024540072992700723        -0.64        
O_OH        O        0.5        0.12963        0.024540072992700723        -0.64        
O_OH        O        0.5        0.24074099999999998        0.024540072992700723        -0.64        
O_OH        O        0.5        0.351852        0.024540072992700723        -0.64        
O_OH        O        0.5        0.46296300000000007        0.024540072992700723        -0.64        
O_OH        O        0.5        0.574075        0.024540072992700723        -0.64        
O_OH        O        0.625        0.018519        0.024540072992700723        -0.64        
O_OH        O        0.625        0.12963        0.024540072992700723        -0.64        
O_OH        O        0.625        0.24074099999999998        0.024540072992700723        -0.64        
O_OH        O        0.625        0.351852        0.024540072992700723        -0.64        
O_OH        O        0.625        0.46296300000000007        0.024540072992700723        -0.64        
O_OH        O        0.625        0.574075        0.024540072992700723        -0.64        
O_OH        O        0.75        0.018519        0.024540072992700723        -0.64        
O_OH        O        0.75        0.12963        0.024540072992700723        -0.64        
O_OH        O        0.75        0.24074099999999998        0.024540072992700723        -0.64        
O_OH        O        0.75        0.351852        0.024540072992700723        -0.64        
O_OH        O        0.75        0.46296300000000007        0.024540072992700723        -0.64        
O_OH        O        0.75        0.574075        0.024540072992700723        -0.64        
O_OH        O        0.875        0.018519        0.024540072992700723        -0.64        
O_OH        O        0.875        0.12963        0.024540072992700723        -0.64        
O_OH        O        0.875        0.24074099999999998        0.024540072992700723        -0.64        
O_OH        O        0.875        0.351852        0.024540072992700723        -0.64        
O_OH        O        0.875        0.46296300000000007        0.024540072992700723        -0.64        
O_OH        O        0.875        0.574075        0.024540072992700723        -0.64        
O_OH        O        0.0        0.685186        0.024540072992700723        -0.64        
O_OH        O        0.125        0.685186        0.024540072992700723        -0.64        
O_OH        O        0.25        0.685186        0.024540072992700723        -0.64        
O_OH        O        0.375        0.685186        0.024540072992700723        -0.64        
O_OH        O        0.5        0.685186        0.024540072992700723        -0.64        
O_OH        O        0.625        0.685186        0.024540072992700723        -0.64        
O_OH        O        0.75        0.685186        0.024540072992700723        -0.64        
O_OH        O        0.875        0.685186        0.024540072992700723        -0.64        
O_OH        O        0.0        0.796297        0.024540072992700723        -0.64        
O_OH        O        0.125        0.796297        0.024540072992700723        -0.64        
O_OH        O        0.25        0.796297        0.024540072992700723        -0.64        
O_OH        O        0.375        0.796297        0.024540072992700723        -0.64        
O_OH        O        0.5        0.796297        0.024540072992700723        -0.64        
O_OH        O        0.625        0.796297        0.024540072992700723        -0.64        
O_OH        O        0.75        0.796297        0.024540072992700723        -0.64        
O_OH        O        0.875        0.796297        0.024540072992700723        -0.64        
O_OH        O        0.0        0.907408        0.024540072992700723        -0.64        
O_OH        O        0.125        0.907408        0.024540072992700723        -0.64        
O_OH        O        0.25        0.907408        0.024540072992700723        -0.64        
O_OH        O        0.375        0.907408        0.024540072992700723        -0.64        
O_OH        O        0.5        0.907408        0.024540072992700723        -0.64        
O_OH        O        0.625        0.907408        0.024540072992700723        -0.64        
O_OH        O        0.75        0.907408        0.024540072992700723        -0.64        
O_OH        O        0.875        0.907408        0.024540072992700723        -0.64        
O_OH        O        0.0        0.018519        0.7227882481751825        -0.64        
O_OH        O        0.0        0.12963        0.7227882481751825        -0.64        
O_OH        O        0.0        0.24074099999999998        0.7227882481751825        -0.64        
O_OH        O        0.0        0.351852        0.7227882481751825        -0.64        
O_OH        O        0.0        0.46296300000000007        0.7227882481751825        -0.64        
O_OH        O        0.0        0.574075        0.7227882481751825        -0.64        
O_OH        O        0.125        0.018519        0.7227882481751825        -0.64        
O_OH        O        0.125        0.12963        0.7227882481751825        -0.64        
O_OH        O        0.125        0.24074099999999998        0.7227882481751825        -0.64        
O_OH        O        0.125        0.351852        0.7227882481751825        -0.64        
O_OH        O        0.125        0.46296300000000007        0.7227882481751825        -0.64        
O_OH        O        0.125        0.574075        0.7227882481751825        -0.64        
O_OH        O        0.25        0.018519        0.7227882481751825        -0.64        
O_OH        O        0.25        0.12963        0.7227882481751825        -0.64        
O_OH        O        0.25        0.24074099999999998        0.7227882481751825        -0.64        
O_OH        O        0.25        0.351852        0.7227882481751825        -0.64        
O_OH        O        0.25        0.46296300000000007        0.7227882481751825        -0.64        
O_OH        O        0.25        0.574075        0.7227882481751825        -0.64        
O_OH        O        0.375        0.018519        0.7227882481751825        -0.64        
O_OH        O        0.375        0.12963        0.7227882481751825        -0.64        
O_OH        O        0.375        0.24074099999999998        0.7227882481751825        -0.64        
O_OH        O        0.375        0.351852        0.7227882481751825        -0.64        
O_OH        O        0.375        0.46296300000000007        0.7227882481751825        -0.64        
O_OH        O        0.375        0.574075        0.7227882481751825        -0.64        
O_OH        O        0.5        0.018519        0.7227882481751825        -0.64        
O_OH        O        0.5        0.12963        0.7227882481751825        -0.64        
O_OH        O        0.5        0.24074099999999998        0.7227882481751825        -0.64        
O_OH        O        0.5        0.351852        0.7227882481751825        -0.64        
O_OH        O        0.5        0.46296300000000007        0.7227882481751825        -0.64        
O_OH        O        0.5        0.574075        0.7227882481751825        -0.64        
O_OH        O        0.625        0.018519        0.7227882481751825        -0.64        
O_OH        O        0.625        0.12963        0.7227882481751825        -0.64        
O_OH        O        0.625        0.24074099999999998        0.7227882481751825        -0.64        
O_OH        O        0.625        0.351852        0.7227882481751825        -0.64        
O_OH        O        0.625        0.46296300000000007        0.7227882481751825        -0.64        
O_OH        O        0.625        0.574075        0.7227882481751825        -0.64        
O_OH        O        0.75        0.018519        0.7227882481751825        -0.64        
O_OH        O        0.75        0.12963        0.7227882481751825        -0.64        
O_OH        O        0.75        0.24074099999999998        0.7227882481751825        -0.64        
O_OH        O        0.75        0.351852        0.7227882481751825        -0.64        
O_OH        O        0.75        0.46296300000000007        0.7227882481751825        -0.64        
O_OH        O        0.75        0.574075        0.7227882481751825        -0.64        
O_OH        O        0.875        0.018519        0.7227882481751825        -0.64        
O_OH        O        0.875        0.12963        0.7227882481751825        -0.64        
O_OH        O        0.875        0.24074099999999998        0.7227882481751825        -0.64        
O_OH        O        0.875        0.351852        0.7227882481751825        -0.64        
O_OH        O        0.875        0.46296300000000007        0.7227882481751825        -0.64        
O_OH        O        0.875        0.574075        0.7227882481751825        -0.64        
O_OH        O        0.0        0.685186        0.7227882481751825        -0.64        
O_OH        O        0.125        0.685186        0.7227882481751825        -0.64        
O_OH        O        0.25        0.685186        0.7227882481751825        -0.64        
O_OH        O        0.375        0.685186        0.7227882481751825        -0.64        
O_OH        O        0.5        0.685186        0.7227882481751825        -0.64        
O_OH        O        0.625        0.685186        0.7227882481751825        -0.64        
O_OH        O        0.75        0.685186        0.7227882481751825        -0.64        
O_OH        O        0.875        0.685186        0.7227882481751825        -0.64        
O_OH        O        0.0        0.796297        0.7227882481751825        -0.64        
O_OH        O        0.125        0.796297        0.7227882481751825        -0.64        
O_OH        O        0.25        0.796297        0.7227882481751825        -0.64        
O_OH        O        0.375        0.796297        0.7227882481751825        -0.64        
O_OH        O        0.5        0.796297        0.7227882481751825        -0.64        
O_OH        O        0.625        0.796297        0.7227882481751825        -0.64        
O_OH        O        0.75        0.796297        0.7227882481751825        -0.64        
O_OH        O        0.875        0.796297        0.7227882481751825        -0.64        
O_OH        O        0.0        0.907408        0.7227882481751825        -0.64        
O_OH        O        0.125        0.907408        0.7227882481751825        -0.64        
O_OH        O        0.25        0.907408        0.7227882481751825        -0.64        
O_OH        O        0.375        0.907408        0.7227882481751825        -0.64        
O_OH        O        0.5        0.907408        0.7227882481751825        -0.64        
O_OH        O        0.625        0.907408        0.7227882481751825        -0.64        
O_OH        O        0.75        0.907408        0.7227882481751825        -0.64        
O_OH        O        0.875        0.907408        0.7227882481751825        -0.64        
H_OH        H        -0.02264949563928248        0.0215858964797322        0.0        0.44        
H_OH        H        0.00027877268344077163        0.15308170458084822        0.0        0.44        
H_OH        H        0.006694216518675592        0.26316499849288816        0.0        0.44        
H_OH        H        0.006242258752083908        0.37441297695662895        0.0        0.44        
H_OH        H        0.017946655513321263        0.4774756337532052        0.0        0.44        
H_OH        H        0.021704184416648644        0.5813958246590994        0.0        0.44        
H_OH        H        0.10233529737877824        0.021465117578648107        0.0        0.44        
H_OH        H        0.11522517975067369        0.15082824830614966        0.0        0.44        
H_OH        H        0.12282281390319652        0.26408770520105873        0.0        0.44        
H_OH        H        0.10915719918112662        0.3687498526749118        0.0        0.44        
H_OH        H        0.1460437961008093        0.4720924469270833        0.0        0.44        
H_OH        H        0.1351959368801902        0.5950631461659762        0.0        0.44        
H_OH        H        0.22832613874610716        0.025933900676355013        0.0        0.44        
H_OH        H        0.26985193340851266        0.1412367596702757        0.0        0.44        
H_OH        H        0.22864906961406994        0.24908509341127244        0.0        0.44        
H_OH        H        0.2679944770252326        0.36630209033459815        0.0        0.44        
H_OH        H        0.24997496289718493        0.48641643666363155        0.0        0.44        
H_OH        H        0.22716393920083208        0.5747549282137839        0.0        0.44        
H_OH        H        0.3524571071032321        0.022324684385203127        0.0        0.44        
H_OH        H        0.36433999470330464        0.1503737187050896        0.0        0.44        
H_OH        H        0.3972023944651179        0.24626733517924138        0.0        0.44        
H_OH        H        0.3951678893172741        0.3628697416396436        0.0        0.44        
H_OH        H        0.39264817647682054        0.4778564102562241        0.0        0.44        
H_OH        H        0.37465796203485324        0.5975258220409919        0.0        0.44        
H_OH        H        0.48191005803851855        0.03284291652284635        0.0        0.44        
H_OH        H        0.5218014550326721        0.13663959990846034        0.0        0.44        
H_OH        H        0.48698623559376863        0.2600172857708679        0.0        0.44        
H_OH        H        0.48077073187389446        0.3645154669283863        0.0        0.44        
H_OH        H        0.5202929747292125        0.4737359612970254        0.0        0.44        
H_OH        H        0.49180100245347375        0.5959660112029309        0.0        0.44        
H_OH        H        0.6360265535067475        0.039059791359481906        0.0        0.44        
H_OH        H        0.6359469234615993        0.15021563086115589        0.0        0.44        
H_OH        H        0.6324672112290146        0.26290626106004855        0.0        0.44        
H_OH        H        0.6021644295342644        0.3525490682278418        0.0        0.44        
H_OH        H        0.6476975908716965        0.4656289493419395        0.0        0.44        
H_OH        H        0.61232620993753        0.5935885633899735        0.0        0.44        
H_OH        H        0.7417409434314373        0.04038620428899857        0.0        0.44        
H_OH        H        0.7352991263882652        0.14758262076452855        0.0        0.44        
H_OH        H        0.7366878321713816        0.2598013225312099        0.0        0.44        
H_OH        H        0.7456876476529116        0.3748838329328362        0.0        0.44        
H_OH        H        0.7581899245067841        0.4848575903359952        0.0        0.44        
H_OH        H        0.7331862981608791        0.589953341311493        0.0        0.44        
H_OH        H        0.8905306332584864        0.03571955910066206        0.0        0.44        
H_OH        H        0.8603375231012279        0.1476156842039642        0.0        0.44        
H_OH        H        0.8544330432732656        0.2509516917970707        0.0        0.44        
H_OH        H        0.870320293568967        0.3748081312057394        0.0        0.44        
H_OH        H        0.880096075328417        0.48582550582986195        0.0        0.44        
H_OH        H        0.8631453631123104        0.5941238154907333        0.0        0.44        
H_OH        H        0.013315024718253262        0.7042442192926968        0.0        0.44        
H_OH        H        0.11985442790989934        0.7080368186490511        0.0        0.44        
H_OH        H        0.27088822235504395        0.6946845285166297        0.0        0.44        
H_OH        H        0.3591574702473457        0.7020841205144244        0.0        0.44        
H_OH        H        0.4804064730915322        0.6972466548878454        0.0        0.44        
H_OH        H        0.6037938500409192        0.6939105358826        0.0        0.44        
H_OH        H        0.7478549490214039        0.7085358400000449        0.0        0.44        
H_OH        H        0.8949605375017209        0.6965947664213815        0.0        0.44        
H_OH        H        0.005498325685673766        0.819061068245413        0.0        0.44        
H_OH        H        0.14661643856644846        0.8038865074952912        0.0        0.44        
H_OH        H        0.2555266658733231        0.8190538342857051        0.0        0.44        
H_OH        H        0.35951035864312647        0.8135364713324106        0.0        0.44        
H_OH        H        0.4835139027105117        0.8125333501484255        0.0        0.44        
H_OH        H        0.6044125342009959        0.8064640389402854        0.0        0.44        
H_OH        H        0.7574994204175076        0.8184507975058393        0.0        0.44        
H_OH        H        0.8713039781231333        0.8194414864220156        0.0        0.44        
H_OH        H        0.002408969269876751        0.9307307000544105        0.0        0.44        
H_OH        H        0.13889108917638712        0.9260278348950417        0.0        0.44        
H_OH        H        0.23291579013515046        0.9229790524751429        0.0        0.44        
H_OH        H        0.37014095580660106        0.9303248294063998        0.0        0.44        
H_OH        H        0.5170861349849778        0.9229768261107677        0.0        0.44        
H_OH        H        0.6477724658046833        0.9092839419183221        0.0        0.44        
H_OH        H        0.7684894160526998        0.9211838568569986        0.0        0.44        
H_OH        H        0.8711064144712329        0.9305183218933476        0.0        0.44        
H_OH        H        0.01821203427383597        0.03267892325672517        0.7473283211678833        0.44        
H_OH        H        0.012863039799191428        0.14901261465720983        0.7473283211678833        0.44        
H_OH        H        -0.0026011424481042714        0.2640419359898584        0.7473283211678833        0.44        
H_OH        H        0.02156482762975054        0.35959470030439544        0.7473283211678833        0.44        
H_OH        H        0.018194926292732793        0.4771460835058875        0.7473283211678833        0.44        
H_OH        H        -0.005077930187594        0.5969417604818327        0.7473283211678833        0.44        
H_OH        H        0.13262268582378656        0.04062841451825487        0.7473283211678833        0.44        
H_OH        H        0.1166265521928185        0.1514513067787587        0.7473283211678833        0.44        
H_OH        H        0.14491176085583982        0.252239245339994        0.7473283211678833        0.44        
H_OH        H        0.14729790327023284        0.35695700327464075        0.7473283211678833        0.44        
H_OH        H        0.10476036237628168        0.47384119597744573        0.7473283211678833        0.44        
H_OH        H        0.14324547598202167        0.588189478058295        0.7473283211678833        0.44        
H_OH        H        0.27275438534808466        0.020613441457807517        0.7473283211678833        0.44        
H_OH        H        0.27048115053487526        0.14002087630529048        0.7473283211678833        0.44        
H_OH        H        0.23793975080747484        0.26066015391474234        0.7473283211678833        0.44        
H_OH        H        0.2323053844327425        0.3666872246511084        0.7473283211678833        0.44        
H_OH        H        0.2312755631388078        0.4764001370519687        0.7473283211678833        0.44        
H_OH        H        0.2328553494031302        0.5895758811240086        0.7473283211678833        0.44        
H_OH        H        0.3878918124369037        0.03788145754897666        0.7473283211678833        0.44        
H_OH        H        0.38332575753610315        0.15147053015009596        0.7473283211678833        0.44        
H_OH        H        0.352645846235062        0.24557979504820357        0.7473283211678833        0.44        
H_OH        H        0.39618617690901603        0.36062752740623016        0.7473283211678833        0.44        
H_OH        H        0.36958491565759427        0.48574808788084567        0.7473283211678833        0.44        
H_OH        H        0.37362637803662        0.5974860184343372        0.7473283211678833        0.44        
H_OH        H        0.5081074582552491        0.040445913421110244        0.7473283211678833        0.44        
H_OH        H        0.477308927246175        0.13235379982823034        0.7473283211678833        0.44        
H_OH        H        0.5183268238674469        0.2547439642391249        0.7473283211678833        0.44        
H_OH        H        0.5191240422973507        0.36468230573097704        0.7473283211678833        0.44        
H_OH        H        0.4912174409804089        0.48461414995461705        0.7473283211678833        0.44        
H_OH        H        0.5211515082251731        0.5829382279907441        0.7473283211678833        0.44        
H_OH        H        0.6477378031851788        0.020795338254763325        0.7473283211678833        0.44        
H_OH        H        0.6272447401451123        0.15296996184695222        0.7473283211678833        0.44        
H_OH        H        0.6348770811941716        0.261889232990766        0.7473283211678833        0.44        
H_OH        H        0.6348531281991581        0.37301200559477665        0.7473283211678833        0.44        
H_OH        H        0.6057937308593169        0.47566319816810415        0.7473283211678833        0.44        
H_OH        H        0.6355474976027621        0.5948792427577428        0.7473283211678833        0.44        
H_OH        H        0.7725800092562896        0.022085249784177627        0.7473283211678833        0.44        
H_OH        H        0.768190203938023        0.14381946599582568        0.7473283211678833        0.44        
H_OH        H        0.7683131498587559        0.25476280571468385        0.7473283211678833        0.44        
H_OH        H        0.764779784068326        0.3697362062678726        0.7473283211678833        0.44        
H_OH        H        0.7702300186905794        0.47386003678781763        0.7473283211678833        0.44        
H_OH        H        0.7308828817888826        0.5869161762067857        0.7473283211678833        0.44        
H_OH        H        0.8554133564327436        0.03059143253924865        0.7473283211678833        0.44        
H_OH        H        0.8807506729730353        0.15232826205116257        0.7473283211678833        0.44        
H_OH        H        0.8966030121916356        0.2483706914041288        0.7473283211678833        0.44        
H_OH        H        0.8978336970837634        0.35261099468100277        0.7473283211678833        0.44        
H_OH        H        0.8542322941793503        0.47273607230452425        0.7473283211678833        0.44        
H_OH        H        0.893632614918262        0.5876459908054338        0.7473283211678833        0.44        
H_OH        H        -0.01372790311229434        0.7039329540741328        0.7473283211678833        0.44        
H_OH        H        0.1458108513303116        0.6948618613549353        0.7473283211678833        0.44        
H_OH        H        0.24131273421521174        0.7068776298908661        0.7473283211678833        0.44        
H_OH        H        0.3858230503884926        0.7058405468914489        0.7473283211678833        0.44        
H_OH        H        0.5228446852509272        0.6854030015151384        0.7473283211678833        0.44        
H_OH        H        0.6338384478597048        0.7068131676226459        0.7473283211678833        0.44        
H_OH        H        0.7299165142905459        0.6963650502257006        0.7473283211678833        0.44        
H_OH        H        0.8577284922292716        0.700537742102209        0.7473283211678833        0.44        
H_OH        H        -0.008993384421888951        0.8178567453034271        0.7473283211678833        0.44        
H_OH        H        0.12593849841560809        0.8197306528243692        0.7473283211678833        0.44        
H_OH        H        0.26037494322538735        0.8171924881702811        0.7473283211678833        0.44        
H_OH        H        0.35255757188905557        0.8006840655401747        0.7473283211678833        0.44        
H_OH        H        0.5036648413259392        0.8194467114898089        0.7473283211678833        0.44        
H_OH        H        0.6475189165827581        0.8002494551047584        0.7473283211678833        0.44        
H_OH        H        0.7659980418116087        0.8130399959810948        0.7473283211678833        0.44        
H_OH        H        0.8525305501251238        0.8005357868116495        0.7473283211678833        0.44        
H_OH        H        -0.02195993177438979        0.9138752570138696        0.7473283211678833        0.44        
H_OH        H        0.1061181184958983        0.9206108976868799        0.7473283211678833        0.44        
H_OH        H        0.2669144013334808        0.9231732212068161        0.7473283211678833        0.44        
H_OH        H        0.3667814381766073        0.9292912780027004        0.7473283211678833        0.44        
H_OH        H        0.5219263319566813        0.9139943105422673        0.7473283211678833        0.44        
H_OH        H        0.6023839262960945        0.9107246676557785        0.7473283211678833        0.44        
H_OH        H        0.7315417737735386        0.9212278681208156        0.7473283211678833        0.44        
H_OH        H        0.8547041092145218        0.9181751702055603        0.7473283211678833        0.44        
