data_graphite_ortho

_audit_creation_method RASPA-1.0
_audit_creation_date 2012-2-3
_audit_author_name 'David Dubbeldam'

_cell_length_a    39.36    
_cell_length_b    38.339999999999996    
_cell_length_c    13.7    
_cell_angle_alpha 90
_cell_angle_beta  90
_cell_angle_gamma 90
_cell_volume      20674.15      

_symmetry_cell_setting          triclinic
_symmetry_space_group_name_Hall 'P 1'
_symmetry_space_group_name_H-M  'P 1'
_symmetry_Int_Tables_number     1

_symmetry_equiv_pos_as_xyz 'x,y,z'

loop_
_atom_site_label
_atom_site_type_symbol
_atom_site_fract_x
_atom_site_fract_y
_atom_site_fract_z
_atom_site_charge
C_FG        C        0.0        0.018519        0.12913861313868613        0.2        
C2        C        0.03125        0.074075        0.12913861313868613        0        
C3        C        0.0        0.092592        0.12913861313868613        0        
C4        C        0.03125        0.037037        0.12913861313868613        0        
C_FG        C        0.0        0.12963        0.12913861313868613        0.2        
C2        C        0.03125        0.185185        0.12913861313868613        0        
C3        C        0.0        0.203703        0.12913861313868613        0        
C4        C        0.03125        0.148148        0.12913861313868613        0        
C_FG        C        0.0        0.24074099999999998        0.12913861313868613        0.2        
C2        C        0.03125        0.296297        0.12913861313868613        0        
C3        C        0.0        0.314815        0.12913861313868613        0        
C4        C        0.03125        0.259259        0.12913861313868613        0        
C_FG        C        0.0        0.351852        0.12913861313868613        0.2        
C2        C        0.03125        0.407408        0.12913861313868613        0        
C3        C        0.0        0.425925        0.12913861313868613        0        
C4        C        0.03125        0.37037        0.12913861313868613        0        
C_FG        C        0.0        0.46296300000000007        0.12913861313868613        0.2        
C2        C        0.03125        0.518519        0.12913861313868613        0        
C3        C        0.0        0.537037        0.12913861313868613        0        
C4        C        0.03125        0.481481        0.12913861313868613        0        
C_FG        C        0.0        0.574075        0.12913861313868613        0.2        
C2        C        0.03125        0.62963        0.12913861313868613        0        
C3        C        0.0        0.648148        0.12913861313868613        0        
C4        C        0.03125        0.592592        0.12913861313868613        0        
C1        C        0.0625        0.018519        0.12913861313868613        0        
C2        C        0.09375        0.074075        0.12913861313868613        0        
C3        C        0.0625        0.092592        0.12913861313868613        0        
C4        C        0.09375        0.037037        0.12913861313868613        0        
C1        C        0.0625        0.12963        0.12913861313868613        0        
C2        C        0.09375        0.185185        0.12913861313868613        0        
C3        C        0.0625        0.203703        0.12913861313868613        0        
C4        C        0.09375        0.148148        0.12913861313868613        0        
C1        C        0.0625        0.24074099999999998        0.12913861313868613        0        
C2        C        0.09375        0.296297        0.12913861313868613        0        
C3        C        0.0625        0.314815        0.12913861313868613        0        
C4        C        0.09375        0.259259        0.12913861313868613        0        
C1        C        0.0625        0.351852        0.12913861313868613        0        
C2        C        0.09375        0.407408        0.12913861313868613        0        
C3        C        0.0625        0.425925        0.12913861313868613        0        
C4        C        0.09375        0.37037        0.12913861313868613        0        
C1        C        0.0625        0.46296300000000007        0.12913861313868613        0        
C2        C        0.09375        0.518519        0.12913861313868613        0        
C3        C        0.0625        0.537037        0.12913861313868613        0        
C4        C        0.09375        0.481481        0.12913861313868613        0        
C1        C        0.0625        0.574075        0.12913861313868613        0        
C2        C        0.09375        0.62963        0.12913861313868613        0        
C3        C        0.0625        0.648148        0.12913861313868613        0        
C4        C        0.09375        0.592592        0.12913861313868613        0        
C1        C        0.125        0.018519        0.12913861313868613        0        
C2        C        0.15625        0.074075        0.12913861313868613        0        
C3        C        0.125        0.092592        0.12913861313868613        0        
C4        C        0.15625        0.037037        0.12913861313868613        0        
C1        C        0.125        0.12963        0.12913861313868613        0        
C2        C        0.15625        0.185185        0.12913861313868613        0        
C3        C        0.125        0.203703        0.12913861313868613        0        
C4        C        0.15625        0.148148        0.12913861313868613        0        
C1        C        0.125        0.24074099999999998        0.12913861313868613        0        
C2        C        0.15625        0.296297        0.12913861313868613        0        
C3        C        0.125        0.314815        0.12913861313868613        0        
C4        C        0.15625        0.259259        0.12913861313868613        0        
C1        C        0.125        0.351852        0.12913861313868613        0        
C2        C        0.15625        0.407408        0.12913861313868613        0        
C3        C        0.125        0.425925        0.12913861313868613        0        
C4        C        0.15625        0.37037        0.12913861313868613        0        
C1        C        0.125        0.46296300000000007        0.12913861313868613        0        
C2        C        0.15625        0.518519        0.12913861313868613        0        
C3        C        0.125        0.537037        0.12913861313868613        0        
C4        C        0.15625        0.481481        0.12913861313868613        0        
C1        C        0.125        0.574075        0.12913861313868613        0        
C2        C        0.15625        0.62963        0.12913861313868613        0        
C3        C        0.125        0.648148        0.12913861313868613        0        
C4        C        0.15625        0.592592        0.12913861313868613        0        
C1        C        0.1875        0.018519        0.12913861313868613        0        
C2        C        0.21875        0.074075        0.12913861313868613        0        
C3        C        0.1875        0.092592        0.12913861313868613        0        
C4        C        0.21875        0.037037        0.12913861313868613        0        
C1        C        0.1875        0.12963        0.12913861313868613        0        
C2        C        0.21875        0.185185        0.12913861313868613        0        
C3        C        0.1875        0.203703        0.12913861313868613        0        
C4        C        0.21875        0.148148        0.12913861313868613        0        
C1        C        0.1875        0.24074099999999998        0.12913861313868613        0        
C2        C        0.21875        0.296297        0.12913861313868613        0        
C3        C        0.1875        0.314815        0.12913861313868613        0        
C4        C        0.21875        0.259259        0.12913861313868613        0        
C1        C        0.1875        0.351852        0.12913861313868613        0        
C2        C        0.21875        0.407408        0.12913861313868613        0        
C3        C        0.1875        0.425925        0.12913861313868613        0        
C4        C        0.21875        0.37037        0.12913861313868613        0        
C1        C        0.1875        0.46296300000000007        0.12913861313868613        0        
C2        C        0.21875        0.518519        0.12913861313868613        0        
C3        C        0.1875        0.537037        0.12913861313868613        0        
C4        C        0.21875        0.481481        0.12913861313868613        0        
C1        C        0.1875        0.574075        0.12913861313868613        0        
C2        C        0.21875        0.62963        0.12913861313868613        0        
C3        C        0.1875        0.648148        0.12913861313868613        0        
C4        C        0.21875        0.592592        0.12913861313868613        0        
C_FG        C        0.25        0.018519        0.12913861313868613        0.2        
C2        C        0.28125        0.074075        0.12913861313868613        0        
C3        C        0.25        0.092592        0.12913861313868613        0        
C4        C        0.28125        0.037037        0.12913861313868613        0        
C_FG        C        0.25        0.12963        0.12913861313868613        0.2        
C2        C        0.28125        0.185185        0.12913861313868613        0        
C3        C        0.25        0.203703        0.12913861313868613        0        
C4        C        0.28125        0.148148        0.12913861313868613        0        
C_FG        C        0.25        0.24074099999999998        0.12913861313868613        0.2        
C2        C        0.28125        0.296297        0.12913861313868613        0        
C3        C        0.25        0.314815        0.12913861313868613        0        
C4        C        0.28125        0.259259        0.12913861313868613        0        
C_FG        C        0.25        0.351852        0.12913861313868613        0.2        
C2        C        0.28125        0.407408        0.12913861313868613        0        
C3        C        0.25        0.425925        0.12913861313868613        0        
C4        C        0.28125        0.37037        0.12913861313868613        0        
C_FG        C        0.25        0.46296300000000007        0.12913861313868613        0.2        
C2        C        0.28125        0.518519        0.12913861313868613        0        
C3        C        0.25        0.537037        0.12913861313868613        0        
C4        C        0.28125        0.481481        0.12913861313868613        0        
C_FG        C        0.25        0.574075        0.12913861313868613        0.2        
C2        C        0.28125        0.62963        0.12913861313868613        0        
C3        C        0.25        0.648148        0.12913861313868613        0        
C4        C        0.28125        0.592592        0.12913861313868613        0        
C1        C        0.3125        0.018519        0.12913861313868613        0        
C2        C        0.34375        0.074075        0.12913861313868613        0        
C3        C        0.3125        0.092592        0.12913861313868613        0        
C4        C        0.34375        0.037037        0.12913861313868613        0        
C1        C        0.3125        0.12963        0.12913861313868613        0        
C2        C        0.34375        0.185185        0.12913861313868613        0        
C3        C        0.3125        0.203703        0.12913861313868613        0        
C4        C        0.34375        0.148148        0.12913861313868613        0        
C1        C        0.3125        0.24074099999999998        0.12913861313868613        0        
C2        C        0.34375        0.296297        0.12913861313868613        0        
C3        C        0.3125        0.314815        0.12913861313868613        0        
C4        C        0.34375        0.259259        0.12913861313868613        0        
C1        C        0.3125        0.351852        0.12913861313868613        0        
C2        C        0.34375        0.407408        0.12913861313868613        0        
C3        C        0.3125        0.425925        0.12913861313868613        0        
C4        C        0.34375        0.37037        0.12913861313868613        0        
C1        C        0.3125        0.46296300000000007        0.12913861313868613        0        
C2        C        0.34375        0.518519        0.12913861313868613        0        
C3        C        0.3125        0.537037        0.12913861313868613        0        
C4        C        0.34375        0.481481        0.12913861313868613        0        
C1        C        0.3125        0.574075        0.12913861313868613        0        
C2        C        0.34375        0.62963        0.12913861313868613        0        
C3        C        0.3125        0.648148        0.12913861313868613        0        
C4        C        0.34375        0.592592        0.12913861313868613        0        
C1        C        0.375        0.018519        0.12913861313868613        0        
C2        C        0.40625        0.074075        0.12913861313868613        0        
C3        C        0.375        0.092592        0.12913861313868613        0        
C4        C        0.40625        0.037037        0.12913861313868613        0        
C1        C        0.375        0.12963        0.12913861313868613        0        
C2        C        0.40625        0.185185        0.12913861313868613        0        
C3        C        0.375        0.203703        0.12913861313868613        0        
C4        C        0.40625        0.148148        0.12913861313868613        0        
C1        C        0.375        0.24074099999999998        0.12913861313868613        0        
C2        C        0.40625        0.296297        0.12913861313868613        0        
C3        C        0.375        0.314815        0.12913861313868613        0        
C4        C        0.40625        0.259259        0.12913861313868613        0        
C1        C        0.375        0.351852        0.12913861313868613        0        
C2        C        0.40625        0.407408        0.12913861313868613        0        
C3        C        0.375        0.425925        0.12913861313868613        0        
C4        C        0.40625        0.37037        0.12913861313868613        0        
C1        C        0.375        0.46296300000000007        0.12913861313868613        0        
C2        C        0.40625        0.518519        0.12913861313868613        0        
C3        C        0.375        0.537037        0.12913861313868613        0        
C4        C        0.40625        0.481481        0.12913861313868613        0        
C1        C        0.375        0.574075        0.12913861313868613        0        
C2        C        0.40625        0.62963        0.12913861313868613        0        
C3        C        0.375        0.648148        0.12913861313868613        0        
C4        C        0.40625        0.592592        0.12913861313868613        0        
C1        C        0.4375        0.018519        0.12913861313868613        0        
C2        C        0.46875        0.074075        0.12913861313868613        0        
C3        C        0.4375        0.092592        0.12913861313868613        0        
C4        C        0.46875        0.037037        0.12913861313868613        0        
C1        C        0.4375        0.12963        0.12913861313868613        0        
C2        C        0.46875        0.185185        0.12913861313868613        0        
C3        C        0.4375        0.203703        0.12913861313868613        0        
C4        C        0.46875        0.148148        0.12913861313868613        0        
C1        C        0.4375        0.24074099999999998        0.12913861313868613        0        
C2        C        0.46875        0.296297        0.12913861313868613        0        
C3        C        0.4375        0.314815        0.12913861313868613        0        
C4        C        0.46875        0.259259        0.12913861313868613        0        
C1        C        0.4375        0.351852        0.12913861313868613        0        
C2        C        0.46875        0.407408        0.12913861313868613        0        
C3        C        0.4375        0.425925        0.12913861313868613        0        
C4        C        0.46875        0.37037        0.12913861313868613        0        
C1        C        0.4375        0.46296300000000007        0.12913861313868613        0        
C2        C        0.46875        0.518519        0.12913861313868613        0        
C3        C        0.4375        0.537037        0.12913861313868613        0        
C4        C        0.46875        0.481481        0.12913861313868613        0        
C1        C        0.4375        0.574075        0.12913861313868613        0        
C2        C        0.46875        0.62963        0.12913861313868613        0        
C3        C        0.4375        0.648148        0.12913861313868613        0        
C4        C        0.46875        0.592592        0.12913861313868613        0        
C1        C        0.5        0.018519        0.12913861313868613        0        
C2        C        0.53125        0.074075        0.12913861313868613        0        
C3        C        0.5        0.092592        0.12913861313868613        0        
C4        C        0.53125        0.037037        0.12913861313868613        0        
C1        C        0.5        0.12963        0.12913861313868613        0        
C2        C        0.53125        0.185185        0.12913861313868613        0        
C3        C        0.5        0.203703        0.12913861313868613        0        
C4        C        0.53125        0.148148        0.12913861313868613        0        
C1        C        0.5        0.24074099999999998        0.12913861313868613        0        
C2        C        0.53125        0.296297        0.12913861313868613        0        
C3        C        0.5        0.314815        0.12913861313868613        0        
C4        C        0.53125        0.259259        0.12913861313868613        0        
C1        C        0.5        0.351852        0.12913861313868613        0        
C2        C        0.53125        0.407408        0.12913861313868613        0        
C3        C        0.5        0.425925        0.12913861313868613        0        
C4        C        0.53125        0.37037        0.12913861313868613        0        
C1        C        0.5        0.46296300000000007        0.12913861313868613        0        
C2        C        0.53125        0.518519        0.12913861313868613        0        
C3        C        0.5        0.537037        0.12913861313868613        0        
C4        C        0.53125        0.481481        0.12913861313868613        0        
C1        C        0.5        0.574075        0.12913861313868613        0        
C2        C        0.53125        0.62963        0.12913861313868613        0        
C3        C        0.5        0.648148        0.12913861313868613        0        
C4        C        0.53125        0.592592        0.12913861313868613        0        
C1        C        0.5625        0.018519        0.12913861313868613        0        
C2        C        0.59375        0.074075        0.12913861313868613        0        
C3        C        0.5625        0.092592        0.12913861313868613        0        
C4        C        0.59375        0.037037        0.12913861313868613        0        
C1        C        0.5625        0.12963        0.12913861313868613        0        
C2        C        0.59375        0.185185        0.12913861313868613        0        
C3        C        0.5625        0.203703        0.12913861313868613        0        
C4        C        0.59375        0.148148        0.12913861313868613        0        
C1        C        0.5625        0.24074099999999998        0.12913861313868613        0        
C2        C        0.59375        0.296297        0.12913861313868613        0        
C3        C        0.5625        0.314815        0.12913861313868613        0        
C4        C        0.59375        0.259259        0.12913861313868613        0        
C1        C        0.5625        0.351852        0.12913861313868613        0        
C2        C        0.59375        0.407408        0.12913861313868613        0        
C3        C        0.5625        0.425925        0.12913861313868613        0        
C4        C        0.59375        0.37037        0.12913861313868613        0        
C1        C        0.5625        0.46296300000000007        0.12913861313868613        0        
C2        C        0.59375        0.518519        0.12913861313868613        0        
C3        C        0.5625        0.537037        0.12913861313868613        0        
C4        C        0.59375        0.481481        0.12913861313868613        0        
C1        C        0.5625        0.574075        0.12913861313868613        0        
C2        C        0.59375        0.62963        0.12913861313868613        0        
C3        C        0.5625        0.648148        0.12913861313868613        0        
C4        C        0.59375        0.592592        0.12913861313868613        0        
C1        C        0.625        0.018519        0.12913861313868613        0        
C2        C        0.65625        0.074075        0.12913861313868613        0        
C3        C        0.625        0.092592        0.12913861313868613        0        
C4        C        0.65625        0.037037        0.12913861313868613        0        
C1        C        0.625        0.12963        0.12913861313868613        0        
C2        C        0.65625        0.185185        0.12913861313868613        0        
C3        C        0.625        0.203703        0.12913861313868613        0        
C4        C        0.65625        0.148148        0.12913861313868613        0        
C1        C        0.625        0.24074099999999998        0.12913861313868613        0        
C2        C        0.65625        0.296297        0.12913861313868613        0        
C3        C        0.625        0.314815        0.12913861313868613        0        
C4        C        0.65625        0.259259        0.12913861313868613        0        
C1        C        0.625        0.351852        0.12913861313868613        0        
C2        C        0.65625        0.407408        0.12913861313868613        0        
C3        C        0.625        0.425925        0.12913861313868613        0        
C4        C        0.65625        0.37037        0.12913861313868613        0        
C1        C        0.625        0.46296300000000007        0.12913861313868613        0        
C2        C        0.65625        0.518519        0.12913861313868613        0        
C3        C        0.625        0.537037        0.12913861313868613        0        
C4        C        0.65625        0.481481        0.12913861313868613        0        
C1        C        0.625        0.574075        0.12913861313868613        0        
C2        C        0.65625        0.62963        0.12913861313868613        0        
C3        C        0.625        0.648148        0.12913861313868613        0        
C4        C        0.65625        0.592592        0.12913861313868613        0        
C1        C        0.6875        0.018519        0.12913861313868613        0        
C2        C        0.71875        0.074075        0.12913861313868613        0        
C3        C        0.6875        0.092592        0.12913861313868613        0        
C4        C        0.71875        0.037037        0.12913861313868613        0        
C1        C        0.6875        0.12963        0.12913861313868613        0        
C2        C        0.71875        0.185185        0.12913861313868613        0        
C3        C        0.6875        0.203703        0.12913861313868613        0        
C4        C        0.71875        0.148148        0.12913861313868613        0        
C1        C        0.6875        0.24074099999999998        0.12913861313868613        0        
C2        C        0.71875        0.296297        0.12913861313868613        0        
C3        C        0.6875        0.314815        0.12913861313868613        0        
C4        C        0.71875        0.259259        0.12913861313868613        0        
C1        C        0.6875        0.351852        0.12913861313868613        0        
C2        C        0.71875        0.407408        0.12913861313868613        0        
C3        C        0.6875        0.425925        0.12913861313868613        0        
C4        C        0.71875        0.37037        0.12913861313868613        0        
C1        C        0.6875        0.46296300000000007        0.12913861313868613        0        
C2        C        0.71875        0.518519        0.12913861313868613        0        
C3        C        0.6875        0.537037        0.12913861313868613        0        
C4        C        0.71875        0.481481        0.12913861313868613        0        
C1        C        0.6875        0.574075        0.12913861313868613        0        
C2        C        0.71875        0.62963        0.12913861313868613        0        
C3        C        0.6875        0.648148        0.12913861313868613        0        
C4        C        0.71875        0.592592        0.12913861313868613        0        
C_FG        C        0.75        0.018519        0.12913861313868613        0.2        
C2        C        0.78125        0.074075        0.12913861313868613        0        
C3        C        0.75        0.092592        0.12913861313868613        0        
C4        C        0.78125        0.037037        0.12913861313868613        0        
C_FG        C        0.75        0.12963        0.12913861313868613        0.2        
C2        C        0.78125        0.185185        0.12913861313868613        0        
C3        C        0.75        0.203703        0.12913861313868613        0        
C4        C        0.78125        0.148148        0.12913861313868613        0        
C_FG        C        0.75        0.24074099999999998        0.12913861313868613        0.2        
C2        C        0.78125        0.296297        0.12913861313868613        0        
C3        C        0.75        0.314815        0.12913861313868613        0        
C4        C        0.78125        0.259259        0.12913861313868613        0        
C_FG        C        0.75        0.351852        0.12913861313868613        0.2        
C2        C        0.78125        0.407408        0.12913861313868613        0        
C3        C        0.75        0.425925        0.12913861313868613        0        
C4        C        0.78125        0.37037        0.12913861313868613        0        
C_FG        C        0.75        0.46296300000000007        0.12913861313868613        0.2        
C2        C        0.78125        0.518519        0.12913861313868613        0        
C3        C        0.75        0.537037        0.12913861313868613        0        
C4        C        0.78125        0.481481        0.12913861313868613        0        
C_FG        C        0.75        0.574075        0.12913861313868613        0.2        
C2        C        0.78125        0.62963        0.12913861313868613        0        
C3        C        0.75        0.648148        0.12913861313868613        0        
C4        C        0.78125        0.592592        0.12913861313868613        0        
C1        C        0.8125        0.018519        0.12913861313868613        0        
C2        C        0.84375        0.074075        0.12913861313868613        0        
C3        C        0.8125        0.092592        0.12913861313868613        0        
C4        C        0.84375        0.037037        0.12913861313868613        0        
C1        C        0.8125        0.12963        0.12913861313868613        0        
C2        C        0.84375        0.185185        0.12913861313868613        0        
C3        C        0.8125        0.203703        0.12913861313868613        0        
C4        C        0.84375        0.148148        0.12913861313868613        0        
C1        C        0.8125        0.24074099999999998        0.12913861313868613        0        
C2        C        0.84375        0.296297        0.12913861313868613        0        
C3        C        0.8125        0.314815        0.12913861313868613        0        
C4        C        0.84375        0.259259        0.12913861313868613        0        
C1        C        0.8125        0.351852        0.12913861313868613        0        
C2        C        0.84375        0.407408        0.12913861313868613        0        
C3        C        0.8125        0.425925        0.12913861313868613        0        
C4        C        0.84375        0.37037        0.12913861313868613        0        
C1        C        0.8125        0.46296300000000007        0.12913861313868613        0        
C2        C        0.84375        0.518519        0.12913861313868613        0        
C3        C        0.8125        0.537037        0.12913861313868613        0        
C4        C        0.84375        0.481481        0.12913861313868613        0        
C1        C        0.8125        0.574075        0.12913861313868613        0        
C2        C        0.84375        0.62963        0.12913861313868613        0        
C3        C        0.8125        0.648148        0.12913861313868613        0        
C4        C        0.84375        0.592592        0.12913861313868613        0        
C1        C        0.875        0.018519        0.12913861313868613        0        
C2        C        0.9062500000000001        0.074075        0.12913861313868613        0        
C3        C        0.875        0.092592        0.12913861313868613        0        
C4        C        0.9062500000000001        0.037037        0.12913861313868613        0        
C1        C        0.875        0.12963        0.12913861313868613        0        
C2        C        0.9062500000000001        0.185185        0.12913861313868613        0        
C3        C        0.875        0.203703        0.12913861313868613        0        
C4        C        0.9062500000000001        0.148148        0.12913861313868613        0        
C1        C        0.875        0.24074099999999998        0.12913861313868613        0        
C2        C        0.9062500000000001        0.296297        0.12913861313868613        0        
C3        C        0.875        0.314815        0.12913861313868613        0        
C4        C        0.9062500000000001        0.259259        0.12913861313868613        0        
C1        C        0.875        0.351852        0.12913861313868613        0        
C2        C        0.9062500000000001        0.407408        0.12913861313868613        0        
C3        C        0.875        0.425925        0.12913861313868613        0        
C4        C        0.9062500000000001        0.37037        0.12913861313868613        0        
C1        C        0.875        0.46296300000000007        0.12913861313868613        0        
C2        C        0.9062500000000001        0.518519        0.12913861313868613        0        
C3        C        0.875        0.537037        0.12913861313868613        0        
C4        C        0.9062500000000001        0.481481        0.12913861313868613        0        
C1        C        0.875        0.574075        0.12913861313868613        0        
C2        C        0.9062500000000001        0.62963        0.12913861313868613        0        
C3        C        0.875        0.648148        0.12913861313868613        0        
C4        C        0.9062500000000001        0.592592        0.12913861313868613        0        
C1        C        0.9375        0.018519        0.12913861313868613        0        
C2        C        0.9687500000000001        0.074075        0.12913861313868613        0        
C3        C        0.9375        0.092592        0.12913861313868613        0        
C4        C        0.9687500000000001        0.037037        0.12913861313868613        0        
C1        C        0.9375        0.12963        0.12913861313868613        0        
C2        C        0.9687500000000001        0.185185        0.12913861313868613        0        
C3        C        0.9375        0.203703        0.12913861313868613        0        
C4        C        0.9687500000000001        0.148148        0.12913861313868613        0        
C1        C        0.9375        0.24074099999999998        0.12913861313868613        0        
C2        C        0.9687500000000001        0.296297        0.12913861313868613        0        
C3        C        0.9375        0.314815        0.12913861313868613        0        
C4        C        0.9687500000000001        0.259259        0.12913861313868613        0        
C1        C        0.9375        0.351852        0.12913861313868613        0        
C2        C        0.9687500000000001        0.407408        0.12913861313868613        0        
C3        C        0.9375        0.425925        0.12913861313868613        0        
C4        C        0.9687500000000001        0.37037        0.12913861313868613        0        
C1        C        0.9375        0.46296300000000007        0.12913861313868613        0        
C2        C        0.9687500000000001        0.518519        0.12913861313868613        0        
C3        C        0.9375        0.537037        0.12913861313868613        0        
C4        C        0.9687500000000001        0.481481        0.12913861313868613        0        
C1        C        0.9375        0.574075        0.12913861313868613        0        
C2        C        0.9687500000000001        0.62963        0.12913861313868613        0        
C3        C        0.9375        0.648148        0.12913861313868613        0        
C4        C        0.9687500000000001        0.592592        0.12913861313868613        0        
C_FG        C        0.0        0.685186        0.12913861313868613        0.2        
C1        C        0.0625        0.685186        0.12913861313868613        0        
C1        C        0.125        0.685186        0.12913861313868613        0        
C1        C        0.1875        0.685186        0.12913861313868613        0        
C_FG        C        0.25        0.685186        0.12913861313868613        0.2        
C1        C        0.3125        0.685186        0.12913861313868613        0        
C1        C        0.375        0.685186        0.12913861313868613        0        
C1        C        0.4375        0.685186        0.12913861313868613        0        
C1        C        0.5        0.685186        0.12913861313868613        0        
C1        C        0.5625        0.685186        0.12913861313868613        0        
C1        C        0.625        0.685186        0.12913861313868613        0        
C1        C        0.6875        0.685186        0.12913861313868613        0        
C_FG        C        0.75        0.685186        0.12913861313868613        0.2        
C1        C        0.8125        0.685186        0.12913861313868613        0        
C1        C        0.875        0.685186        0.12913861313868613        0        
C1        C        0.9375        0.685186        0.12913861313868613        0        
C2        C        0.03125        0.740741        0.12913861313868613        0        
C2        C        0.09375        0.740741        0.12913861313868613        0        
C2        C        0.15625        0.740741        0.12913861313868613        0        
C2        C        0.21875        0.740741        0.12913861313868613        0        
C2        C        0.28125        0.740741        0.12913861313868613        0        
C2        C        0.34375        0.740741        0.12913861313868613        0        
C2        C        0.40625        0.740741        0.12913861313868613        0        
C2        C        0.46875        0.740741        0.12913861313868613        0        
C2        C        0.53125        0.740741        0.12913861313868613        0        
C2        C        0.59375        0.740741        0.12913861313868613        0        
C2        C        0.65625        0.740741        0.12913861313868613        0        
C2        C        0.71875        0.740741        0.12913861313868613        0        
C2        C        0.78125        0.740741        0.12913861313868613        0        
C2        C        0.84375        0.740741        0.12913861313868613        0        
C2        C        0.9062500000000001        0.740741        0.12913861313868613        0        
C2        C        0.9687500000000001        0.740741        0.12913861313868613        0        
C3        C        0.0        0.759259        0.12913861313868613        0        
C3        C        0.0625        0.759259        0.12913861313868613        0        
C3        C        0.125        0.759259        0.12913861313868613        0        
C3        C        0.1875        0.759259        0.12913861313868613        0        
C3        C        0.25        0.759259        0.12913861313868613        0        
C3        C        0.3125        0.759259        0.12913861313868613        0        
C3        C        0.375        0.759259        0.12913861313868613        0        
C3        C        0.4375        0.759259        0.12913861313868613        0        
C3        C        0.5        0.759259        0.12913861313868613        0        
C3        C        0.5625        0.759259        0.12913861313868613        0        
C3        C        0.625        0.759259        0.12913861313868613        0        
C3        C        0.6875        0.759259        0.12913861313868613        0        
C3        C        0.75        0.759259        0.12913861313868613        0        
C3        C        0.8125        0.759259        0.12913861313868613        0        
C3        C        0.875        0.759259        0.12913861313868613        0        
C3        C        0.9375        0.759259        0.12913861313868613        0        
C4        C        0.03125        0.703703        0.12913861313868613        0        
C4        C        0.09375        0.703703        0.12913861313868613        0        
C4        C        0.15625        0.703703        0.12913861313868613        0        
C4        C        0.21875        0.703703        0.12913861313868613        0        
C4        C        0.28125        0.703703        0.12913861313868613        0        
C4        C        0.34375        0.703703        0.12913861313868613        0        
C4        C        0.40625        0.703703        0.12913861313868613        0        
C4        C        0.46875        0.703703        0.12913861313868613        0        
C4        C        0.53125        0.703703        0.12913861313868613        0        
C4        C        0.59375        0.703703        0.12913861313868613        0        
C4        C        0.65625        0.703703        0.12913861313868613        0        
C4        C        0.71875        0.703703        0.12913861313868613        0        
C4        C        0.78125        0.703703        0.12913861313868613        0        
C4        C        0.84375        0.703703        0.12913861313868613        0        
C4        C        0.9062500000000001        0.703703        0.12913861313868613        0        
C4        C        0.9687500000000001        0.703703        0.12913861313868613        0        
C_FG        C        0.0        0.796297        0.12913861313868613        0.2        
C1        C        0.0625        0.796297        0.12913861313868613        0        
C1        C        0.125        0.796297        0.12913861313868613        0        
C1        C        0.1875        0.796297        0.12913861313868613        0        
C_FG        C        0.25        0.796297        0.12913861313868613        0.2        
C1        C        0.3125        0.796297        0.12913861313868613        0        
C1        C        0.375        0.796297        0.12913861313868613        0        
C1        C        0.4375        0.796297        0.12913861313868613        0        
C1        C        0.5        0.796297        0.12913861313868613        0        
C1        C        0.5625        0.796297        0.12913861313868613        0        
C1        C        0.625        0.796297        0.12913861313868613        0        
C1        C        0.6875        0.796297        0.12913861313868613        0        
C_FG        C        0.75        0.796297        0.12913861313868613        0.2        
C1        C        0.8125        0.796297        0.12913861313868613        0        
C1        C        0.875        0.796297        0.12913861313868613        0        
C1        C        0.9375        0.796297        0.12913861313868613        0        
C2        C        0.03125        0.851852        0.12913861313868613        0        
C2        C        0.09375        0.851852        0.12913861313868613        0        
C2        C        0.15625        0.851852        0.12913861313868613        0        
C2        C        0.21875        0.851852        0.12913861313868613        0        
C2        C        0.28125        0.851852        0.12913861313868613        0        
C2        C        0.34375        0.851852        0.12913861313868613        0        
C2        C        0.40625        0.851852        0.12913861313868613        0        
C2        C        0.46875        0.851852        0.12913861313868613        0        
C2        C        0.53125        0.851852        0.12913861313868613        0        
C2        C        0.59375        0.851852        0.12913861313868613        0        
C2        C        0.65625        0.851852        0.12913861313868613        0        
C2        C        0.71875        0.851852        0.12913861313868613        0        
C2        C        0.78125        0.851852        0.12913861313868613        0        
C2        C        0.84375        0.851852        0.12913861313868613        0        
C2        C        0.9062500000000001        0.851852        0.12913861313868613        0        
C2        C        0.9687500000000001        0.851852        0.12913861313868613        0        
C3        C        0.0        0.87037        0.12913861313868613        0        
C3        C        0.0625        0.87037        0.12913861313868613        0        
C3        C        0.125        0.87037        0.12913861313868613        0        
C3        C        0.1875        0.87037        0.12913861313868613        0        
C3        C        0.25        0.87037        0.12913861313868613        0        
C3        C        0.3125        0.87037        0.12913861313868613        0        
C3        C        0.375        0.87037        0.12913861313868613        0        
C3        C        0.4375        0.87037        0.12913861313868613        0        
C3        C        0.5        0.87037        0.12913861313868613        0        
C3        C        0.5625        0.87037        0.12913861313868613        0        
C3        C        0.625        0.87037        0.12913861313868613        0        
C3        C        0.6875        0.87037        0.12913861313868613        0        
C3        C        0.75        0.87037        0.12913861313868613        0        
C3        C        0.8125        0.87037        0.12913861313868613        0        
C3        C        0.875        0.87037        0.12913861313868613        0        
C3        C        0.9375        0.87037        0.12913861313868613        0        
C4        C        0.03125        0.814814        0.12913861313868613        0        
C4        C        0.09375        0.814814        0.12913861313868613        0        
C4        C        0.15625        0.814814        0.12913861313868613        0        
C4        C        0.21875        0.814814        0.12913861313868613        0        
C4        C        0.28125        0.814814        0.12913861313868613        0        
C4        C        0.34375        0.814814        0.12913861313868613        0        
C4        C        0.40625        0.814814        0.12913861313868613        0        
C4        C        0.46875        0.814814        0.12913861313868613        0        
C4        C        0.53125        0.814814        0.12913861313868613        0        
C4        C        0.59375        0.814814        0.12913861313868613        0        
C4        C        0.65625        0.814814        0.12913861313868613        0        
C4        C        0.71875        0.814814        0.12913861313868613        0        
C4        C        0.78125        0.814814        0.12913861313868613        0        
C4        C        0.84375        0.814814        0.12913861313868613        0        
C4        C        0.9062500000000001        0.814814        0.12913861313868613        0        
C4        C        0.9687500000000001        0.814814        0.12913861313868613        0        
C_FG        C        0.0        0.907408        0.12913861313868613        0.2        
C1        C        0.0625        0.907408        0.12913861313868613        0        
C1        C        0.125        0.907408        0.12913861313868613        0        
C1        C        0.1875        0.907408        0.12913861313868613        0        
C_FG        C        0.25        0.907408        0.12913861313868613        0.2        
C1        C        0.3125        0.907408        0.12913861313868613        0        
C1        C        0.375        0.907408        0.12913861313868613        0        
C1        C        0.4375        0.907408        0.12913861313868613        0        
C1        C        0.5        0.907408        0.12913861313868613        0        
C1        C        0.5625        0.907408        0.12913861313868613        0        
C1        C        0.625        0.907408        0.12913861313868613        0        
C1        C        0.6875        0.907408        0.12913861313868613        0        
C_FG        C        0.75        0.907408        0.12913861313868613        0.2        
C1        C        0.8125        0.907408        0.12913861313868613        0        
C1        C        0.875        0.907408        0.12913861313868613        0        
C1        C        0.9375        0.907408        0.12913861313868613        0        
C2        C        0.03125        0.962963        0.12913861313868613        0        
C2        C        0.09375        0.962963        0.12913861313868613        0        
C2        C        0.15625        0.962963        0.12913861313868613        0        
C2        C        0.21875        0.962963        0.12913861313868613        0        
C2        C        0.28125        0.962963        0.12913861313868613        0        
C2        C        0.34375        0.962963        0.12913861313868613        0        
C2        C        0.40625        0.962963        0.12913861313868613        0        
C2        C        0.46875        0.962963        0.12913861313868613        0        
C2        C        0.53125        0.962963        0.12913861313868613        0        
C2        C        0.59375        0.962963        0.12913861313868613        0        
C2        C        0.65625        0.962963        0.12913861313868613        0        
C2        C        0.71875        0.962963        0.12913861313868613        0        
C2        C        0.78125        0.962963        0.12913861313868613        0        
C2        C        0.84375        0.962963        0.12913861313868613        0        
C2        C        0.9062500000000001        0.962963        0.12913861313868613        0        
C2        C        0.9687500000000001        0.962963        0.12913861313868613        0        
C3        C        0.0        0.9814809999999999        0.12913861313868613        0        
C3        C        0.0625        0.9814809999999999        0.12913861313868613        0        
C3        C        0.125        0.9814809999999999        0.12913861313868613        0        
C3        C        0.1875        0.9814809999999999        0.12913861313868613        0        
C3        C        0.25        0.9814809999999999        0.12913861313868613        0        
C3        C        0.3125        0.9814809999999999        0.12913861313868613        0        
C3        C        0.375        0.9814809999999999        0.12913861313868613        0        
C3        C        0.4375        0.9814809999999999        0.12913861313868613        0        
C3        C        0.5        0.9814809999999999        0.12913861313868613        0        
C3        C        0.5625        0.9814809999999999        0.12913861313868613        0        
C3        C        0.625        0.9814809999999999        0.12913861313868613        0        
C3        C        0.6875        0.9814809999999999        0.12913861313868613        0        
C3        C        0.75        0.9814809999999999        0.12913861313868613        0        
C3        C        0.8125        0.9814809999999999        0.12913861313868613        0        
C3        C        0.875        0.9814809999999999        0.12913861313868613        0        
C3        C        0.9375        0.9814809999999999        0.12913861313868613        0        
C4        C        0.03125        0.925925        0.12913861313868613        0        
C4        C        0.09375        0.925925        0.12913861313868613        0        
C4        C        0.15625        0.925925        0.12913861313868613        0        
C4        C        0.21875        0.925925        0.12913861313868613        0        
C4        C        0.28125        0.925925        0.12913861313868613        0        
C4        C        0.34375        0.925925        0.12913861313868613        0        
C4        C        0.40625        0.925925        0.12913861313868613        0        
C4        C        0.46875        0.925925        0.12913861313868613        0        
C4        C        0.53125        0.925925        0.12913861313868613        0        
C4        C        0.59375        0.925925        0.12913861313868613        0        
C4        C        0.65625        0.925925        0.12913861313868613        0        
C4        C        0.71875        0.925925        0.12913861313868613        0        
C4        C        0.78125        0.925925        0.12913861313868613        0        
C4        C        0.84375        0.925925        0.12913861313868613        0        
C4        C        0.9062500000000001        0.925925        0.12913861313868613        0        
C4        C        0.9687500000000001        0.925925        0.12913861313868613        0        
C1        C        0.0        0.018519        0.3736641605839415        0        
C2        C        0.03125        0.074075        0.3736641605839415        0        
C3        C        0.0        0.092592        0.3736641605839415        0        
C4        C        0.03125        0.037037        0.3736641605839415        0        
C1        C        0.0        0.12963        0.3736641605839415        0        
C2        C        0.03125        0.185185        0.3736641605839415        0        
C3        C        0.0        0.203703        0.3736641605839415        0        
C4        C        0.03125        0.148148        0.3736641605839415        0        
C1        C        0.0        0.24074099999999998        0.3736641605839415        0        
C2        C        0.03125        0.296297        0.3736641605839415        0        
C3        C        0.0        0.314815        0.3736641605839415        0        
C4        C        0.03125        0.259259        0.3736641605839415        0        
C1        C        0.0        0.351852        0.3736641605839415        0        
C2        C        0.03125        0.407408        0.3736641605839415        0        
C3        C        0.0        0.425925        0.3736641605839415        0        
C4        C        0.03125        0.37037        0.3736641605839415        0        
C1        C        0.0        0.46296300000000007        0.3736641605839415        0        
C2        C        0.03125        0.518519        0.3736641605839415        0        
C3        C        0.0        0.537037        0.3736641605839415        0        
C4        C        0.03125        0.481481        0.3736641605839415        0        
C1        C        0.0        0.574075        0.3736641605839415        0        
C2        C        0.03125        0.62963        0.3736641605839415        0        
C3        C        0.0        0.648148        0.3736641605839415        0        
C4        C        0.03125        0.592592        0.3736641605839415        0        
C1        C        0.0625        0.018519        0.3736641605839415        0        
C2        C        0.09375        0.074075        0.3736641605839415        0        
C3        C        0.0625        0.092592        0.3736641605839415        0        
C4        C        0.09375        0.037037        0.3736641605839415        0        
C1        C        0.0625        0.12963        0.3736641605839415        0        
C2        C        0.09375        0.185185        0.3736641605839415        0        
C3        C        0.0625        0.203703        0.3736641605839415        0        
C4        C        0.09375        0.148148        0.3736641605839415        0        
C1        C        0.0625        0.24074099999999998        0.3736641605839415        0        
C2        C        0.09375        0.296297        0.3736641605839415        0        
C3        C        0.0625        0.314815        0.3736641605839415        0        
C4        C        0.09375        0.259259        0.3736641605839415        0        
C1        C        0.0625        0.351852        0.3736641605839415        0        
C2        C        0.09375        0.407408        0.3736641605839415        0        
C3        C        0.0625        0.425925        0.3736641605839415        0        
C4        C        0.09375        0.37037        0.3736641605839415        0        
C1        C        0.0625        0.46296300000000007        0.3736641605839415        0        
C2        C        0.09375        0.518519        0.3736641605839415        0        
C3        C        0.0625        0.537037        0.3736641605839415        0        
C4        C        0.09375        0.481481        0.3736641605839415        0        
C1        C        0.0625        0.574075        0.3736641605839415        0        
C2        C        0.09375        0.62963        0.3736641605839415        0        
C3        C        0.0625        0.648148        0.3736641605839415        0        
C4        C        0.09375        0.592592        0.3736641605839415        0        
C1        C        0.125        0.018519        0.3736641605839415        0        
C2        C        0.15625        0.074075        0.3736641605839415        0        
C3        C        0.125        0.092592        0.3736641605839415        0        
C4        C        0.15625        0.037037        0.3736641605839415        0        
C1        C        0.125        0.12963        0.3736641605839415        0        
C2        C        0.15625        0.185185        0.3736641605839415        0        
C3        C        0.125        0.203703        0.3736641605839415        0        
C4        C        0.15625        0.148148        0.3736641605839415        0        
C1        C        0.125        0.24074099999999998        0.3736641605839415        0        
C2        C        0.15625        0.296297        0.3736641605839415        0        
C3        C        0.125        0.314815        0.3736641605839415        0        
C4        C        0.15625        0.259259        0.3736641605839415        0        
C1        C        0.125        0.351852        0.3736641605839415        0        
C2        C        0.15625        0.407408        0.3736641605839415        0        
C3        C        0.125        0.425925        0.3736641605839415        0        
C4        C        0.15625        0.37037        0.3736641605839415        0        
C1        C        0.125        0.46296300000000007        0.3736641605839415        0        
C2        C        0.15625        0.518519        0.3736641605839415        0        
C3        C        0.125        0.537037        0.3736641605839415        0        
C4        C        0.15625        0.481481        0.3736641605839415        0        
C1        C        0.125        0.574075        0.3736641605839415        0        
C2        C        0.15625        0.62963        0.3736641605839415        0        
C3        C        0.125        0.648148        0.3736641605839415        0        
C4        C        0.15625        0.592592        0.3736641605839415        0        
C1        C        0.1875        0.018519        0.3736641605839415        0        
C2        C        0.21875        0.074075        0.3736641605839415        0        
C3        C        0.1875        0.092592        0.3736641605839415        0        
C4        C        0.21875        0.037037        0.3736641605839415        0        
C1        C        0.1875        0.12963        0.3736641605839415        0        
C2        C        0.21875        0.185185        0.3736641605839415        0        
C3        C        0.1875        0.203703        0.3736641605839415        0        
C4        C        0.21875        0.148148        0.3736641605839415        0        
C1        C        0.1875        0.24074099999999998        0.3736641605839415        0        
C2        C        0.21875        0.296297        0.3736641605839415        0        
C3        C        0.1875        0.314815        0.3736641605839415        0        
C4        C        0.21875        0.259259        0.3736641605839415        0        
C1        C        0.1875        0.351852        0.3736641605839415        0        
C2        C        0.21875        0.407408        0.3736641605839415        0        
C3        C        0.1875        0.425925        0.3736641605839415        0        
C4        C        0.21875        0.37037        0.3736641605839415        0        
C1        C        0.1875        0.46296300000000007        0.3736641605839415        0        
C2        C        0.21875        0.518519        0.3736641605839415        0        
C3        C        0.1875        0.537037        0.3736641605839415        0        
C4        C        0.21875        0.481481        0.3736641605839415        0        
C1        C        0.1875        0.574075        0.3736641605839415        0        
C2        C        0.21875        0.62963        0.3736641605839415        0        
C3        C        0.1875        0.648148        0.3736641605839415        0        
C4        C        0.21875        0.592592        0.3736641605839415        0        
C1        C        0.25        0.018519        0.3736641605839415        0        
C2        C        0.28125        0.074075        0.3736641605839415        0        
C3        C        0.25        0.092592        0.3736641605839415        0        
C4        C        0.28125        0.037037        0.3736641605839415        0        
C1        C        0.25        0.12963        0.3736641605839415        0        
C2        C        0.28125        0.185185        0.3736641605839415        0        
C3        C        0.25        0.203703        0.3736641605839415        0        
C4        C        0.28125        0.148148        0.3736641605839415        0        
C1        C        0.25        0.24074099999999998        0.3736641605839415        0        
C2        C        0.28125        0.296297        0.3736641605839415        0        
C3        C        0.25        0.314815        0.3736641605839415        0        
C4        C        0.28125        0.259259        0.3736641605839415        0        
C1        C        0.25        0.351852        0.3736641605839415        0        
C2        C        0.28125        0.407408        0.3736641605839415        0        
C3        C        0.25        0.425925        0.3736641605839415        0        
C4        C        0.28125        0.37037        0.3736641605839415        0        
C1        C        0.25        0.46296300000000007        0.3736641605839415        0        
C2        C        0.28125        0.518519        0.3736641605839415        0        
C3        C        0.25        0.537037        0.3736641605839415        0        
C4        C        0.28125        0.481481        0.3736641605839415        0        
C1        C        0.25        0.574075        0.3736641605839415        0        
C2        C        0.28125        0.62963        0.3736641605839415        0        
C3        C        0.25        0.648148        0.3736641605839415        0        
C4        C        0.28125        0.592592        0.3736641605839415        0        
C1        C        0.3125        0.018519        0.3736641605839415        0        
C2        C        0.34375        0.074075        0.3736641605839415        0        
C3        C        0.3125        0.092592        0.3736641605839415        0        
C4        C        0.34375        0.037037        0.3736641605839415        0        
C1        C        0.3125        0.12963        0.3736641605839415        0        
C2        C        0.34375        0.185185        0.3736641605839415        0        
C3        C        0.3125        0.203703        0.3736641605839415        0        
C4        C        0.34375        0.148148        0.3736641605839415        0        
C1        C        0.3125        0.24074099999999998        0.3736641605839415        0        
C2        C        0.34375        0.296297        0.3736641605839415        0        
C3        C        0.3125        0.314815        0.3736641605839415        0        
C4        C        0.34375        0.259259        0.3736641605839415        0        
C1        C        0.3125        0.351852        0.3736641605839415        0        
C2        C        0.34375        0.407408        0.3736641605839415        0        
C3        C        0.3125        0.425925        0.3736641605839415        0        
C4        C        0.34375        0.37037        0.3736641605839415        0        
C1        C        0.3125        0.46296300000000007        0.3736641605839415        0        
C2        C        0.34375        0.518519        0.3736641605839415        0        
C3        C        0.3125        0.537037        0.3736641605839415        0        
C4        C        0.34375        0.481481        0.3736641605839415        0        
C1        C        0.3125        0.574075        0.3736641605839415        0        
C2        C        0.34375        0.62963        0.3736641605839415        0        
C3        C        0.3125        0.648148        0.3736641605839415        0        
C4        C        0.34375        0.592592        0.3736641605839415        0        
C1        C        0.375        0.018519        0.3736641605839415        0        
C2        C        0.40625        0.074075        0.3736641605839415        0        
C3        C        0.375        0.092592        0.3736641605839415        0        
C4        C        0.40625        0.037037        0.3736641605839415        0        
C1        C        0.375        0.12963        0.3736641605839415        0        
C2        C        0.40625        0.185185        0.3736641605839415        0        
C3        C        0.375        0.203703        0.3736641605839415        0        
C4        C        0.40625        0.148148        0.3736641605839415        0        
C1        C        0.375        0.24074099999999998        0.3736641605839415        0        
C2        C        0.40625        0.296297        0.3736641605839415        0        
C3        C        0.375        0.314815        0.3736641605839415        0        
C4        C        0.40625        0.259259        0.3736641605839415        0        
C1        C        0.375        0.351852        0.3736641605839415        0        
C2        C        0.40625        0.407408        0.3736641605839415        0        
C3        C        0.375        0.425925        0.3736641605839415        0        
C4        C        0.40625        0.37037        0.3736641605839415        0        
C1        C        0.375        0.46296300000000007        0.3736641605839415        0        
C2        C        0.40625        0.518519        0.3736641605839415        0        
C3        C        0.375        0.537037        0.3736641605839415        0        
C4        C        0.40625        0.481481        0.3736641605839415        0        
C1        C        0.375        0.574075        0.3736641605839415        0        
C2        C        0.40625        0.62963        0.3736641605839415        0        
C3        C        0.375        0.648148        0.3736641605839415        0        
C4        C        0.40625        0.592592        0.3736641605839415        0        
C1        C        0.4375        0.018519        0.3736641605839415        0        
C2        C        0.46875        0.074075        0.3736641605839415        0        
C3        C        0.4375        0.092592        0.3736641605839415        0        
C4        C        0.46875        0.037037        0.3736641605839415        0        
C1        C        0.4375        0.12963        0.3736641605839415        0        
C2        C        0.46875        0.185185        0.3736641605839415        0        
C3        C        0.4375        0.203703        0.3736641605839415        0        
C4        C        0.46875        0.148148        0.3736641605839415        0        
C1        C        0.4375        0.24074099999999998        0.3736641605839415        0        
C2        C        0.46875        0.296297        0.3736641605839415        0        
C3        C        0.4375        0.314815        0.3736641605839415        0        
C4        C        0.46875        0.259259        0.3736641605839415        0        
C1        C        0.4375        0.351852        0.3736641605839415        0        
C2        C        0.46875        0.407408        0.3736641605839415        0        
C3        C        0.4375        0.425925        0.3736641605839415        0        
C4        C        0.46875        0.37037        0.3736641605839415        0        
C1        C        0.4375        0.46296300000000007        0.3736641605839415        0        
C2        C        0.46875        0.518519        0.3736641605839415        0        
C3        C        0.4375        0.537037        0.3736641605839415        0        
C4        C        0.46875        0.481481        0.3736641605839415        0        
C1        C        0.4375        0.574075        0.3736641605839415        0        
C2        C        0.46875        0.62963        0.3736641605839415        0        
C3        C        0.4375        0.648148        0.3736641605839415        0        
C4        C        0.46875        0.592592        0.3736641605839415        0        
C1        C        0.5        0.018519        0.3736641605839415        0        
C2        C        0.53125        0.074075        0.3736641605839415        0        
C3        C        0.5        0.092592        0.3736641605839415        0        
C4        C        0.53125        0.037037        0.3736641605839415        0        
C1        C        0.5        0.12963        0.3736641605839415        0        
C2        C        0.53125        0.185185        0.3736641605839415        0        
C3        C        0.5        0.203703        0.3736641605839415        0        
C4        C        0.53125        0.148148        0.3736641605839415        0        
C1        C        0.5        0.24074099999999998        0.3736641605839415        0        
C2        C        0.53125        0.296297        0.3736641605839415        0        
C3        C        0.5        0.314815        0.3736641605839415        0        
C4        C        0.53125        0.259259        0.3736641605839415        0        
C1        C        0.5        0.351852        0.3736641605839415        0        
C2        C        0.53125        0.407408        0.3736641605839415        0        
C3        C        0.5        0.425925        0.3736641605839415        0        
C4        C        0.53125        0.37037        0.3736641605839415        0        
C1        C        0.5        0.46296300000000007        0.3736641605839415        0        
C2        C        0.53125        0.518519        0.3736641605839415        0        
C3        C        0.5        0.537037        0.3736641605839415        0        
C4        C        0.53125        0.481481        0.3736641605839415        0        
C1        C        0.5        0.574075        0.3736641605839415        0        
C2        C        0.53125        0.62963        0.3736641605839415        0        
C3        C        0.5        0.648148        0.3736641605839415        0        
C4        C        0.53125        0.592592        0.3736641605839415        0        
C1        C        0.5625        0.018519        0.3736641605839415        0        
C2        C        0.59375        0.074075        0.3736641605839415        0        
C3        C        0.5625        0.092592        0.3736641605839415        0        
C4        C        0.59375        0.037037        0.3736641605839415        0        
C1        C        0.5625        0.12963        0.3736641605839415        0        
C2        C        0.59375        0.185185        0.3736641605839415        0        
C3        C        0.5625        0.203703        0.3736641605839415        0        
C4        C        0.59375        0.148148        0.3736641605839415        0        
C1        C        0.5625        0.24074099999999998        0.3736641605839415        0        
C2        C        0.59375        0.296297        0.3736641605839415        0        
C3        C        0.5625        0.314815        0.3736641605839415        0        
C4        C        0.59375        0.259259        0.3736641605839415        0        
C1        C        0.5625        0.351852        0.3736641605839415        0        
C2        C        0.59375        0.407408        0.3736641605839415        0        
C3        C        0.5625        0.425925        0.3736641605839415        0        
C4        C        0.59375        0.37037        0.3736641605839415        0        
C1        C        0.5625        0.46296300000000007        0.3736641605839415        0        
C2        C        0.59375        0.518519        0.3736641605839415        0        
C3        C        0.5625        0.537037        0.3736641605839415        0        
C4        C        0.59375        0.481481        0.3736641605839415        0        
C1        C        0.5625        0.574075        0.3736641605839415        0        
C2        C        0.59375        0.62963        0.3736641605839415        0        
C3        C        0.5625        0.648148        0.3736641605839415        0        
C4        C        0.59375        0.592592        0.3736641605839415        0        
C1        C        0.625        0.018519        0.3736641605839415        0        
C2        C        0.65625        0.074075        0.3736641605839415        0        
C3        C        0.625        0.092592        0.3736641605839415        0        
C4        C        0.65625        0.037037        0.3736641605839415        0        
C1        C        0.625        0.12963        0.3736641605839415        0        
C2        C        0.65625        0.185185        0.3736641605839415        0        
C3        C        0.625        0.203703        0.3736641605839415        0        
C4        C        0.65625        0.148148        0.3736641605839415        0        
C1        C        0.625        0.24074099999999998        0.3736641605839415        0        
C2        C        0.65625        0.296297        0.3736641605839415        0        
C3        C        0.625        0.314815        0.3736641605839415        0        
C4        C        0.65625        0.259259        0.3736641605839415        0        
C1        C        0.625        0.351852        0.3736641605839415        0        
C2        C        0.65625        0.407408        0.3736641605839415        0        
C3        C        0.625        0.425925        0.3736641605839415        0        
C4        C        0.65625        0.37037        0.3736641605839415        0        
C1        C        0.625        0.46296300000000007        0.3736641605839415        0        
C2        C        0.65625        0.518519        0.3736641605839415        0        
C3        C        0.625        0.537037        0.3736641605839415        0        
C4        C        0.65625        0.481481        0.3736641605839415        0        
C1        C        0.625        0.574075        0.3736641605839415        0        
C2        C        0.65625        0.62963        0.3736641605839415        0        
C3        C        0.625        0.648148        0.3736641605839415        0        
C4        C        0.65625        0.592592        0.3736641605839415        0        
C1        C        0.6875        0.018519        0.3736641605839415        0        
C2        C        0.71875        0.074075        0.3736641605839415        0        
C3        C        0.6875        0.092592        0.3736641605839415        0        
C4        C        0.71875        0.037037        0.3736641605839415        0        
C1        C        0.6875        0.12963        0.3736641605839415        0        
C2        C        0.71875        0.185185        0.3736641605839415        0        
C3        C        0.6875        0.203703        0.3736641605839415        0        
C4        C        0.71875        0.148148        0.3736641605839415        0        
C1        C        0.6875        0.24074099999999998        0.3736641605839415        0        
C2        C        0.71875        0.296297        0.3736641605839415        0        
C3        C        0.6875        0.314815        0.3736641605839415        0        
C4        C        0.71875        0.259259        0.3736641605839415        0        
C1        C        0.6875        0.351852        0.3736641605839415        0        
C2        C        0.71875        0.407408        0.3736641605839415        0        
C3        C        0.6875        0.425925        0.3736641605839415        0        
C4        C        0.71875        0.37037        0.3736641605839415        0        
C1        C        0.6875        0.46296300000000007        0.3736641605839415        0        
C2        C        0.71875        0.518519        0.3736641605839415        0        
C3        C        0.6875        0.537037        0.3736641605839415        0        
C4        C        0.71875        0.481481        0.3736641605839415        0        
C1        C        0.6875        0.574075        0.3736641605839415        0        
C2        C        0.71875        0.62963        0.3736641605839415        0        
C3        C        0.6875        0.648148        0.3736641605839415        0        
C4        C        0.71875        0.592592        0.3736641605839415        0        
C1        C        0.75        0.018519        0.3736641605839415        0        
C2        C        0.78125        0.074075        0.3736641605839415        0        
C3        C        0.75        0.092592        0.3736641605839415        0        
C4        C        0.78125        0.037037        0.3736641605839415        0        
C1        C        0.75        0.12963        0.3736641605839415        0        
C2        C        0.78125        0.185185        0.3736641605839415        0        
C3        C        0.75        0.203703        0.3736641605839415        0        
C4        C        0.78125        0.148148        0.3736641605839415        0        
C1        C        0.75        0.24074099999999998        0.3736641605839415        0        
C2        C        0.78125        0.296297        0.3736641605839415        0        
C3        C        0.75        0.314815        0.3736641605839415        0        
C4        C        0.78125        0.259259        0.3736641605839415        0        
C1        C        0.75        0.351852        0.3736641605839415        0        
C2        C        0.78125        0.407408        0.3736641605839415        0        
C3        C        0.75        0.425925        0.3736641605839415        0        
C4        C        0.78125        0.37037        0.3736641605839415        0        
C1        C        0.75        0.46296300000000007        0.3736641605839415        0        
C2        C        0.78125        0.518519        0.3736641605839415        0        
C3        C        0.75        0.537037        0.3736641605839415        0        
C4        C        0.78125        0.481481        0.3736641605839415        0        
C1        C        0.75        0.574075        0.3736641605839415        0        
C2        C        0.78125        0.62963        0.3736641605839415        0        
C3        C        0.75        0.648148        0.3736641605839415        0        
C4        C        0.78125        0.592592        0.3736641605839415        0        
C1        C        0.8125        0.018519        0.3736641605839415        0        
C2        C        0.84375        0.074075        0.3736641605839415        0        
C3        C        0.8125        0.092592        0.3736641605839415        0        
C4        C        0.84375        0.037037        0.3736641605839415        0        
C1        C        0.8125        0.12963        0.3736641605839415        0        
C2        C        0.84375        0.185185        0.3736641605839415        0        
C3        C        0.8125        0.203703        0.3736641605839415        0        
C4        C        0.84375        0.148148        0.3736641605839415        0        
C1        C        0.8125        0.24074099999999998        0.3736641605839415        0        
C2        C        0.84375        0.296297        0.3736641605839415        0        
C3        C        0.8125        0.314815        0.3736641605839415        0        
C4        C        0.84375        0.259259        0.3736641605839415        0        
C1        C        0.8125        0.351852        0.3736641605839415        0        
C2        C        0.84375        0.407408        0.3736641605839415        0        
C3        C        0.8125        0.425925        0.3736641605839415        0        
C4        C        0.84375        0.37037        0.3736641605839415        0        
C1        C        0.8125        0.46296300000000007        0.3736641605839415        0        
C2        C        0.84375        0.518519        0.3736641605839415        0        
C3        C        0.8125        0.537037        0.3736641605839415        0        
C4        C        0.84375        0.481481        0.3736641605839415        0        
C1        C        0.8125        0.574075        0.3736641605839415        0        
C2        C        0.84375        0.62963        0.3736641605839415        0        
C3        C        0.8125        0.648148        0.3736641605839415        0        
C4        C        0.84375        0.592592        0.3736641605839415        0        
C1        C        0.875        0.018519        0.3736641605839415        0        
C2        C        0.9062500000000001        0.074075        0.3736641605839415        0        
C3        C        0.875        0.092592        0.3736641605839415        0        
C4        C        0.9062500000000001        0.037037        0.3736641605839415        0        
C1        C        0.875        0.12963        0.3736641605839415        0        
C2        C        0.9062500000000001        0.185185        0.3736641605839415        0        
C3        C        0.875        0.203703        0.3736641605839415        0        
C4        C        0.9062500000000001        0.148148        0.3736641605839415        0        
C1        C        0.875        0.24074099999999998        0.3736641605839415        0        
C2        C        0.9062500000000001        0.296297        0.3736641605839415        0        
C3        C        0.875        0.314815        0.3736641605839415        0        
C4        C        0.9062500000000001        0.259259        0.3736641605839415        0        
C1        C        0.875        0.351852        0.3736641605839415        0        
C2        C        0.9062500000000001        0.407408        0.3736641605839415        0        
C3        C        0.875        0.425925        0.3736641605839415        0        
C4        C        0.9062500000000001        0.37037        0.3736641605839415        0        
C1        C        0.875        0.46296300000000007        0.3736641605839415        0        
C2        C        0.9062500000000001        0.518519        0.3736641605839415        0        
C3        C        0.875        0.537037        0.3736641605839415        0        
C4        C        0.9062500000000001        0.481481        0.3736641605839415        0        
C1        C        0.875        0.574075        0.3736641605839415        0        
C2        C        0.9062500000000001        0.62963        0.3736641605839415        0        
C3        C        0.875        0.648148        0.3736641605839415        0        
C4        C        0.9062500000000001        0.592592        0.3736641605839415        0        
C1        C        0.9375        0.018519        0.3736641605839415        0        
C2        C        0.9687500000000001        0.074075        0.3736641605839415        0        
C3        C        0.9375        0.092592        0.3736641605839415        0        
C4        C        0.9687500000000001        0.037037        0.3736641605839415        0        
C1        C        0.9375        0.12963        0.3736641605839415        0        
C2        C        0.9687500000000001        0.185185        0.3736641605839415        0        
C3        C        0.9375        0.203703        0.3736641605839415        0        
C4        C        0.9687500000000001        0.148148        0.3736641605839415        0        
C1        C        0.9375        0.24074099999999998        0.3736641605839415        0        
C2        C        0.9687500000000001        0.296297        0.3736641605839415        0        
C3        C        0.9375        0.314815        0.3736641605839415        0        
C4        C        0.9687500000000001        0.259259        0.3736641605839415        0        
C1        C        0.9375        0.351852        0.3736641605839415        0        
C2        C        0.9687500000000001        0.407408        0.3736641605839415        0        
C3        C        0.9375        0.425925        0.3736641605839415        0        
C4        C        0.9687500000000001        0.37037        0.3736641605839415        0        
C1        C        0.9375        0.46296300000000007        0.3736641605839415        0        
C2        C        0.9687500000000001        0.518519        0.3736641605839415        0        
C3        C        0.9375        0.537037        0.3736641605839415        0        
C4        C        0.9687500000000001        0.481481        0.3736641605839415        0        
C1        C        0.9375        0.574075        0.3736641605839415        0        
C2        C        0.9687500000000001        0.62963        0.3736641605839415        0        
C3        C        0.9375        0.648148        0.3736641605839415        0        
C4        C        0.9687500000000001        0.592592        0.3736641605839415        0        
C1        C        0.0        0.685186        0.3736641605839415        0        
C1        C        0.0625        0.685186        0.3736641605839415        0        
C1        C        0.125        0.685186        0.3736641605839415        0        
C1        C        0.1875        0.685186        0.3736641605839415        0        
C1        C        0.25        0.685186        0.3736641605839415        0        
C1        C        0.3125        0.685186        0.3736641605839415        0        
C1        C        0.375        0.685186        0.3736641605839415        0        
C1        C        0.4375        0.685186        0.3736641605839415        0        
C1        C        0.5        0.685186        0.3736641605839415        0        
C1        C        0.5625        0.685186        0.3736641605839415        0        
C1        C        0.625        0.685186        0.3736641605839415        0        
C1        C        0.6875        0.685186        0.3736641605839415        0        
C1        C        0.75        0.685186        0.3736641605839415        0        
C1        C        0.8125        0.685186        0.3736641605839415        0        
C1        C        0.875        0.685186        0.3736641605839415        0        
C1        C        0.9375        0.685186        0.3736641605839415        0        
C2        C        0.03125        0.740741        0.3736641605839415        0        
C2        C        0.09375        0.740741        0.3736641605839415        0        
C2        C        0.15625        0.740741        0.3736641605839415        0        
C2        C        0.21875        0.740741        0.3736641605839415        0        
C2        C        0.28125        0.740741        0.3736641605839415        0        
C2        C        0.34375        0.740741        0.3736641605839415        0        
C2        C        0.40625        0.740741        0.3736641605839415        0        
C2        C        0.46875        0.740741        0.3736641605839415        0        
C2        C        0.53125        0.740741        0.3736641605839415        0        
C2        C        0.59375        0.740741        0.3736641605839415        0        
C2        C        0.65625        0.740741        0.3736641605839415        0        
C2        C        0.71875        0.740741        0.3736641605839415        0        
C2        C        0.78125        0.740741        0.3736641605839415        0        
C2        C        0.84375        0.740741        0.3736641605839415        0        
C2        C        0.9062500000000001        0.740741        0.3736641605839415        0        
C2        C        0.9687500000000001        0.740741        0.3736641605839415        0        
C3        C        0.0        0.759259        0.3736641605839415        0        
C3        C        0.0625        0.759259        0.3736641605839415        0        
C3        C        0.125        0.759259        0.3736641605839415        0        
C3        C        0.1875        0.759259        0.3736641605839415        0        
C3        C        0.25        0.759259        0.3736641605839415        0        
C3        C        0.3125        0.759259        0.3736641605839415        0        
C3        C        0.375        0.759259        0.3736641605839415        0        
C3        C        0.4375        0.759259        0.3736641605839415        0        
C3        C        0.5        0.759259        0.3736641605839415        0        
C3        C        0.5625        0.759259        0.3736641605839415        0        
C3        C        0.625        0.759259        0.3736641605839415        0        
C3        C        0.6875        0.759259        0.3736641605839415        0        
C3        C        0.75        0.759259        0.3736641605839415        0        
C3        C        0.8125        0.759259        0.3736641605839415        0        
C3        C        0.875        0.759259        0.3736641605839415        0        
C3        C        0.9375        0.759259        0.3736641605839415        0        
C4        C        0.03125        0.703703        0.3736641605839415        0        
C4        C        0.09375        0.703703        0.3736641605839415        0        
C4        C        0.15625        0.703703        0.3736641605839415        0        
C4        C        0.21875        0.703703        0.3736641605839415        0        
C4        C        0.28125        0.703703        0.3736641605839415        0        
C4        C        0.34375        0.703703        0.3736641605839415        0        
C4        C        0.40625        0.703703        0.3736641605839415        0        
C4        C        0.46875        0.703703        0.3736641605839415        0        
C4        C        0.53125        0.703703        0.3736641605839415        0        
C4        C        0.59375        0.703703        0.3736641605839415        0        
C4        C        0.65625        0.703703        0.3736641605839415        0        
C4        C        0.71875        0.703703        0.3736641605839415        0        
C4        C        0.78125        0.703703        0.3736641605839415        0        
C4        C        0.84375        0.703703        0.3736641605839415        0        
C4        C        0.9062500000000001        0.703703        0.3736641605839415        0        
C4        C        0.9687500000000001        0.703703        0.3736641605839415        0        
C1        C        0.0        0.796297        0.3736641605839415        0        
C1        C        0.0625        0.796297        0.3736641605839415        0        
C1        C        0.125        0.796297        0.3736641605839415        0        
C1        C        0.1875        0.796297        0.3736641605839415        0        
C1        C        0.25        0.796297        0.3736641605839415        0        
C1        C        0.3125        0.796297        0.3736641605839415        0        
C1        C        0.375        0.796297        0.3736641605839415        0        
C1        C        0.4375        0.796297        0.3736641605839415        0        
C1        C        0.5        0.796297        0.3736641605839415        0        
C1        C        0.5625        0.796297        0.3736641605839415        0        
C1        C        0.625        0.796297        0.3736641605839415        0        
C1        C        0.6875        0.796297        0.3736641605839415        0        
C1        C        0.75        0.796297        0.3736641605839415        0        
C1        C        0.8125        0.796297        0.3736641605839415        0        
C1        C        0.875        0.796297        0.3736641605839415        0        
C1        C        0.9375        0.796297        0.3736641605839415        0        
C2        C        0.03125        0.851852        0.3736641605839415        0        
C2        C        0.09375        0.851852        0.3736641605839415        0        
C2        C        0.15625        0.851852        0.3736641605839415        0        
C2        C        0.21875        0.851852        0.3736641605839415        0        
C2        C        0.28125        0.851852        0.3736641605839415        0        
C2        C        0.34375        0.851852        0.3736641605839415        0        
C2        C        0.40625        0.851852        0.3736641605839415        0        
C2        C        0.46875        0.851852        0.3736641605839415        0        
C2        C        0.53125        0.851852        0.3736641605839415        0        
C2        C        0.59375        0.851852        0.3736641605839415        0        
C2        C        0.65625        0.851852        0.3736641605839415        0        
C2        C        0.71875        0.851852        0.3736641605839415        0        
C2        C        0.78125        0.851852        0.3736641605839415        0        
C2        C        0.84375        0.851852        0.3736641605839415        0        
C2        C        0.9062500000000001        0.851852        0.3736641605839415        0        
C2        C        0.9687500000000001        0.851852        0.3736641605839415        0        
C3        C        0.0        0.87037        0.3736641605839415        0        
C3        C        0.0625        0.87037        0.3736641605839415        0        
C3        C        0.125        0.87037        0.3736641605839415        0        
C3        C        0.1875        0.87037        0.3736641605839415        0        
C3        C        0.25        0.87037        0.3736641605839415        0        
C3        C        0.3125        0.87037        0.3736641605839415        0        
C3        C        0.375        0.87037        0.3736641605839415        0        
C3        C        0.4375        0.87037        0.3736641605839415        0        
C3        C        0.5        0.87037        0.3736641605839415        0        
C3        C        0.5625        0.87037        0.3736641605839415        0        
C3        C        0.625        0.87037        0.3736641605839415        0        
C3        C        0.6875        0.87037        0.3736641605839415        0        
C3        C        0.75        0.87037        0.3736641605839415        0        
C3        C        0.8125        0.87037        0.3736641605839415        0        
C3        C        0.875        0.87037        0.3736641605839415        0        
C3        C        0.9375        0.87037        0.3736641605839415        0        
C4        C        0.03125        0.814814        0.3736641605839415        0        
C4        C        0.09375        0.814814        0.3736641605839415        0        
C4        C        0.15625        0.814814        0.3736641605839415        0        
C4        C        0.21875        0.814814        0.3736641605839415        0        
C4        C        0.28125        0.814814        0.3736641605839415        0        
C4        C        0.34375        0.814814        0.3736641605839415        0        
C4        C        0.40625        0.814814        0.3736641605839415        0        
C4        C        0.46875        0.814814        0.3736641605839415        0        
C4        C        0.53125        0.814814        0.3736641605839415        0        
C4        C        0.59375        0.814814        0.3736641605839415        0        
C4        C        0.65625        0.814814        0.3736641605839415        0        
C4        C        0.71875        0.814814        0.3736641605839415        0        
C4        C        0.78125        0.814814        0.3736641605839415        0        
C4        C        0.84375        0.814814        0.3736641605839415        0        
C4        C        0.9062500000000001        0.814814        0.3736641605839415        0        
C4        C        0.9687500000000001        0.814814        0.3736641605839415        0        
C1        C        0.0        0.907408        0.3736641605839415        0        
C1        C        0.0625        0.907408        0.3736641605839415        0        
C1        C        0.125        0.907408        0.3736641605839415        0        
C1        C        0.1875        0.907408        0.3736641605839415        0        
C1        C        0.25        0.907408        0.3736641605839415        0        
C1        C        0.3125        0.907408        0.3736641605839415        0        
C1        C        0.375        0.907408        0.3736641605839415        0        
C1        C        0.4375        0.907408        0.3736641605839415        0        
C1        C        0.5        0.907408        0.3736641605839415        0        
C1        C        0.5625        0.907408        0.3736641605839415        0        
C1        C        0.625        0.907408        0.3736641605839415        0        
C1        C        0.6875        0.907408        0.3736641605839415        0        
C1        C        0.75        0.907408        0.3736641605839415        0        
C1        C        0.8125        0.907408        0.3736641605839415        0        
C1        C        0.875        0.907408        0.3736641605839415        0        
C1        C        0.9375        0.907408        0.3736641605839415        0        
C2        C        0.03125        0.962963        0.3736641605839415        0        
C2        C        0.09375        0.962963        0.3736641605839415        0        
C2        C        0.15625        0.962963        0.3736641605839415        0        
C2        C        0.21875        0.962963        0.3736641605839415        0        
C2        C        0.28125        0.962963        0.3736641605839415        0        
C2        C        0.34375        0.962963        0.3736641605839415        0        
C2        C        0.40625        0.962963        0.3736641605839415        0        
C2        C        0.46875        0.962963        0.3736641605839415        0        
C2        C        0.53125        0.962963        0.3736641605839415        0        
C2        C        0.59375        0.962963        0.3736641605839415        0        
C2        C        0.65625        0.962963        0.3736641605839415        0        
C2        C        0.71875        0.962963        0.3736641605839415        0        
C2        C        0.78125        0.962963        0.3736641605839415        0        
C2        C        0.84375        0.962963        0.3736641605839415        0        
C2        C        0.9062500000000001        0.962963        0.3736641605839415        0        
C2        C        0.9687500000000001        0.962963        0.3736641605839415        0        
C3        C        0.0        0.9814809999999999        0.3736641605839415        0        
C3        C        0.0625        0.9814809999999999        0.3736641605839415        0        
C3        C        0.125        0.9814809999999999        0.3736641605839415        0        
C3        C        0.1875        0.9814809999999999        0.3736641605839415        0        
C3        C        0.25        0.9814809999999999        0.3736641605839415        0        
C3        C        0.3125        0.9814809999999999        0.3736641605839415        0        
C3        C        0.375        0.9814809999999999        0.3736641605839415        0        
C3        C        0.4375        0.9814809999999999        0.3736641605839415        0        
C3        C        0.5        0.9814809999999999        0.3736641605839415        0        
C3        C        0.5625        0.9814809999999999        0.3736641605839415        0        
C3        C        0.625        0.9814809999999999        0.3736641605839415        0        
C3        C        0.6875        0.9814809999999999        0.3736641605839415        0        
C3        C        0.75        0.9814809999999999        0.3736641605839415        0        
C3        C        0.8125        0.9814809999999999        0.3736641605839415        0        
C3        C        0.875        0.9814809999999999        0.3736641605839415        0        
C3        C        0.9375        0.9814809999999999        0.3736641605839415        0        
C4        C        0.03125        0.925925        0.3736641605839415        0        
C4        C        0.09375        0.925925        0.3736641605839415        0        
C4        C        0.15625        0.925925        0.3736641605839415        0        
C4        C        0.21875        0.925925        0.3736641605839415        0        
C4        C        0.28125        0.925925        0.3736641605839415        0        
C4        C        0.34375        0.925925        0.3736641605839415        0        
C4        C        0.40625        0.925925        0.3736641605839415        0        
C4        C        0.46875        0.925925        0.3736641605839415        0        
C4        C        0.53125        0.925925        0.3736641605839415        0        
C4        C        0.59375        0.925925        0.3736641605839415        0        
C4        C        0.65625        0.925925        0.3736641605839415        0        
C4        C        0.71875        0.925925        0.3736641605839415        0        
C4        C        0.78125        0.925925        0.3736641605839415        0        
C4        C        0.84375        0.925925        0.3736641605839415        0        
C4        C        0.9062500000000001        0.925925        0.3736641605839415        0        
C4        C        0.9687500000000001        0.925925        0.3736641605839415        0        
C_FG        C        0.0        0.018519        0.618189708029197        0.2        
C2        C        0.03125        0.074075        0.618189708029197        0        
C3        C        0.0        0.092592        0.618189708029197        0        
C4        C        0.03125        0.037037        0.618189708029197        0        
C_FG        C        0.0        0.12963        0.618189708029197        0.2        
C2        C        0.03125        0.185185        0.618189708029197        0        
C3        C        0.0        0.203703        0.618189708029197        0        
C4        C        0.03125        0.148148        0.618189708029197        0        
C_FG        C        0.0        0.24074099999999998        0.618189708029197        0.2        
C2        C        0.03125        0.296297        0.618189708029197        0        
C3        C        0.0        0.314815        0.618189708029197        0        
C4        C        0.03125        0.259259        0.618189708029197        0        
C_FG        C        0.0        0.351852        0.618189708029197        0.2        
C2        C        0.03125        0.407408        0.618189708029197        0        
C3        C        0.0        0.425925        0.618189708029197        0        
C4        C        0.03125        0.37037        0.618189708029197        0        
C_FG        C        0.0        0.46296300000000007        0.618189708029197        0.2        
C2        C        0.03125        0.518519        0.618189708029197        0        
C3        C        0.0        0.537037        0.618189708029197        0        
C4        C        0.03125        0.481481        0.618189708029197        0        
C_FG        C        0.0        0.574075        0.618189708029197        0.2        
C2        C        0.03125        0.62963        0.618189708029197        0        
C3        C        0.0        0.648148        0.618189708029197        0        
C4        C        0.03125        0.592592        0.618189708029197        0        
C1        C        0.0625        0.018519        0.618189708029197        0        
C2        C        0.09375        0.074075        0.618189708029197        0        
C3        C        0.0625        0.092592        0.618189708029197        0        
C4        C        0.09375        0.037037        0.618189708029197        0        
C1        C        0.0625        0.12963        0.618189708029197        0        
C2        C        0.09375        0.185185        0.618189708029197        0        
C3        C        0.0625        0.203703        0.618189708029197        0        
C4        C        0.09375        0.148148        0.618189708029197        0        
C1        C        0.0625        0.24074099999999998        0.618189708029197        0        
C2        C        0.09375        0.296297        0.618189708029197        0        
C3        C        0.0625        0.314815        0.618189708029197        0        
C4        C        0.09375        0.259259        0.618189708029197        0        
C1        C        0.0625        0.351852        0.618189708029197        0        
C2        C        0.09375        0.407408        0.618189708029197        0        
C3        C        0.0625        0.425925        0.618189708029197        0        
C4        C        0.09375        0.37037        0.618189708029197        0        
C1        C        0.0625        0.46296300000000007        0.618189708029197        0        
C2        C        0.09375        0.518519        0.618189708029197        0        
C3        C        0.0625        0.537037        0.618189708029197        0        
C4        C        0.09375        0.481481        0.618189708029197        0        
C1        C        0.0625        0.574075        0.618189708029197        0        
C2        C        0.09375        0.62963        0.618189708029197        0        
C3        C        0.0625        0.648148        0.618189708029197        0        
C4        C        0.09375        0.592592        0.618189708029197        0        
C1        C        0.125        0.018519        0.618189708029197        0        
C2        C        0.15625        0.074075        0.618189708029197        0        
C3        C        0.125        0.092592        0.618189708029197        0        
C4        C        0.15625        0.037037        0.618189708029197        0        
C1        C        0.125        0.12963        0.618189708029197        0        
C2        C        0.15625        0.185185        0.618189708029197        0        
C3        C        0.125        0.203703        0.618189708029197        0        
C4        C        0.15625        0.148148        0.618189708029197        0        
C1        C        0.125        0.24074099999999998        0.618189708029197        0        
C2        C        0.15625        0.296297        0.618189708029197        0        
C3        C        0.125        0.314815        0.618189708029197        0        
C4        C        0.15625        0.259259        0.618189708029197        0        
C1        C        0.125        0.351852        0.618189708029197        0        
C2        C        0.15625        0.407408        0.618189708029197        0        
C3        C        0.125        0.425925        0.618189708029197        0        
C4        C        0.15625        0.37037        0.618189708029197        0        
C1        C        0.125        0.46296300000000007        0.618189708029197        0        
C2        C        0.15625        0.518519        0.618189708029197        0        
C3        C        0.125        0.537037        0.618189708029197        0        
C4        C        0.15625        0.481481        0.618189708029197        0        
C1        C        0.125        0.574075        0.618189708029197        0        
C2        C        0.15625        0.62963        0.618189708029197        0        
C3        C        0.125        0.648148        0.618189708029197        0        
C4        C        0.15625        0.592592        0.618189708029197        0        
C1        C        0.1875        0.018519        0.618189708029197        0        
C2        C        0.21875        0.074075        0.618189708029197        0        
C3        C        0.1875        0.092592        0.618189708029197        0        
C4        C        0.21875        0.037037        0.618189708029197        0        
C1        C        0.1875        0.12963        0.618189708029197        0        
C2        C        0.21875        0.185185        0.618189708029197        0        
C3        C        0.1875        0.203703        0.618189708029197        0        
C4        C        0.21875        0.148148        0.618189708029197        0        
C1        C        0.1875        0.24074099999999998        0.618189708029197        0        
C2        C        0.21875        0.296297        0.618189708029197        0        
C3        C        0.1875        0.314815        0.618189708029197        0        
C4        C        0.21875        0.259259        0.618189708029197        0        
C1        C        0.1875        0.351852        0.618189708029197        0        
C2        C        0.21875        0.407408        0.618189708029197        0        
C3        C        0.1875        0.425925        0.618189708029197        0        
C4        C        0.21875        0.37037        0.618189708029197        0        
C1        C        0.1875        0.46296300000000007        0.618189708029197        0        
C2        C        0.21875        0.518519        0.618189708029197        0        
C3        C        0.1875        0.537037        0.618189708029197        0        
C4        C        0.21875        0.481481        0.618189708029197        0        
C1        C        0.1875        0.574075        0.618189708029197        0        
C2        C        0.21875        0.62963        0.618189708029197        0        
C3        C        0.1875        0.648148        0.618189708029197        0        
C4        C        0.21875        0.592592        0.618189708029197        0        
C_FG        C        0.25        0.018519        0.618189708029197        0.2        
C2        C        0.28125        0.074075        0.618189708029197        0        
C3        C        0.25        0.092592        0.618189708029197        0        
C4        C        0.28125        0.037037        0.618189708029197        0        
C_FG        C        0.25        0.12963        0.618189708029197        0.2        
C2        C        0.28125        0.185185        0.618189708029197        0        
C3        C        0.25        0.203703        0.618189708029197        0        
C4        C        0.28125        0.148148        0.618189708029197        0        
C_FG        C        0.25        0.24074099999999998        0.618189708029197        0.2        
C2        C        0.28125        0.296297        0.618189708029197        0        
C3        C        0.25        0.314815        0.618189708029197        0        
C4        C        0.28125        0.259259        0.618189708029197        0        
C_FG        C        0.25        0.351852        0.618189708029197        0.2        
C2        C        0.28125        0.407408        0.618189708029197        0        
C3        C        0.25        0.425925        0.618189708029197        0        
C4        C        0.28125        0.37037        0.618189708029197        0        
C_FG        C        0.25        0.46296300000000007        0.618189708029197        0.2        
C2        C        0.28125        0.518519        0.618189708029197        0        
C3        C        0.25        0.537037        0.618189708029197        0        
C4        C        0.28125        0.481481        0.618189708029197        0        
C_FG        C        0.25        0.574075        0.618189708029197        0.2        
C2        C        0.28125        0.62963        0.618189708029197        0        
C3        C        0.25        0.648148        0.618189708029197        0        
C4        C        0.28125        0.592592        0.618189708029197        0        
C1        C        0.3125        0.018519        0.618189708029197        0        
C2        C        0.34375        0.074075        0.618189708029197        0        
C3        C        0.3125        0.092592        0.618189708029197        0        
C4        C        0.34375        0.037037        0.618189708029197        0        
C1        C        0.3125        0.12963        0.618189708029197        0        
C2        C        0.34375        0.185185        0.618189708029197        0        
C3        C        0.3125        0.203703        0.618189708029197        0        
C4        C        0.34375        0.148148        0.618189708029197        0        
C1        C        0.3125        0.24074099999999998        0.618189708029197        0        
C2        C        0.34375        0.296297        0.618189708029197        0        
C3        C        0.3125        0.314815        0.618189708029197        0        
C4        C        0.34375        0.259259        0.618189708029197        0        
C1        C        0.3125        0.351852        0.618189708029197        0        
C2        C        0.34375        0.407408        0.618189708029197        0        
C3        C        0.3125        0.425925        0.618189708029197        0        
C4        C        0.34375        0.37037        0.618189708029197        0        
C1        C        0.3125        0.46296300000000007        0.618189708029197        0        
C2        C        0.34375        0.518519        0.618189708029197        0        
C3        C        0.3125        0.537037        0.618189708029197        0        
C4        C        0.34375        0.481481        0.618189708029197        0        
C1        C        0.3125        0.574075        0.618189708029197        0        
C2        C        0.34375        0.62963        0.618189708029197        0        
C3        C        0.3125        0.648148        0.618189708029197        0        
C4        C        0.34375        0.592592        0.618189708029197        0        
C1        C        0.375        0.018519        0.618189708029197        0        
C2        C        0.40625        0.074075        0.618189708029197        0        
C3        C        0.375        0.092592        0.618189708029197        0        
C4        C        0.40625        0.037037        0.618189708029197        0        
C1        C        0.375        0.12963        0.618189708029197        0        
C2        C        0.40625        0.185185        0.618189708029197        0        
C3        C        0.375        0.203703        0.618189708029197        0        
C4        C        0.40625        0.148148        0.618189708029197        0        
C1        C        0.375        0.24074099999999998        0.618189708029197        0        
C2        C        0.40625        0.296297        0.618189708029197        0        
C3        C        0.375        0.314815        0.618189708029197        0        
C4        C        0.40625        0.259259        0.618189708029197        0        
C1        C        0.375        0.351852        0.618189708029197        0        
C2        C        0.40625        0.407408        0.618189708029197        0        
C3        C        0.375        0.425925        0.618189708029197        0        
C4        C        0.40625        0.37037        0.618189708029197        0        
C1        C        0.375        0.46296300000000007        0.618189708029197        0        
C2        C        0.40625        0.518519        0.618189708029197        0        
C3        C        0.375        0.537037        0.618189708029197        0        
C4        C        0.40625        0.481481        0.618189708029197        0        
C1        C        0.375        0.574075        0.618189708029197        0        
C2        C        0.40625        0.62963        0.618189708029197        0        
C3        C        0.375        0.648148        0.618189708029197        0        
C4        C        0.40625        0.592592        0.618189708029197        0        
C1        C        0.4375        0.018519        0.618189708029197        0        
C2        C        0.46875        0.074075        0.618189708029197        0        
C3        C        0.4375        0.092592        0.618189708029197        0        
C4        C        0.46875        0.037037        0.618189708029197        0        
C1        C        0.4375        0.12963        0.618189708029197        0        
C2        C        0.46875        0.185185        0.618189708029197        0        
C3        C        0.4375        0.203703        0.618189708029197        0        
C4        C        0.46875        0.148148        0.618189708029197        0        
C1        C        0.4375        0.24074099999999998        0.618189708029197        0        
C2        C        0.46875        0.296297        0.618189708029197        0        
C3        C        0.4375        0.314815        0.618189708029197        0        
C4        C        0.46875        0.259259        0.618189708029197        0        
C1        C        0.4375        0.351852        0.618189708029197        0        
C2        C        0.46875        0.407408        0.618189708029197        0        
C3        C        0.4375        0.425925        0.618189708029197        0        
C4        C        0.46875        0.37037        0.618189708029197        0        
C1        C        0.4375        0.46296300000000007        0.618189708029197        0        
C2        C        0.46875        0.518519        0.618189708029197        0        
C3        C        0.4375        0.537037        0.618189708029197        0        
C4        C        0.46875        0.481481        0.618189708029197        0        
C1        C        0.4375        0.574075        0.618189708029197        0        
C2        C        0.46875        0.62963        0.618189708029197        0        
C3        C        0.4375        0.648148        0.618189708029197        0        
C4        C        0.46875        0.592592        0.618189708029197        0        
C1        C        0.5        0.018519        0.618189708029197        0        
C2        C        0.53125        0.074075        0.618189708029197        0        
C3        C        0.5        0.092592        0.618189708029197        0        
C4        C        0.53125        0.037037        0.618189708029197        0        
C1        C        0.5        0.12963        0.618189708029197        0        
C2        C        0.53125        0.185185        0.618189708029197        0        
C3        C        0.5        0.203703        0.618189708029197        0        
C4        C        0.53125        0.148148        0.618189708029197        0        
C1        C        0.5        0.24074099999999998        0.618189708029197        0        
C2        C        0.53125        0.296297        0.618189708029197        0        
C3        C        0.5        0.314815        0.618189708029197        0        
C4        C        0.53125        0.259259        0.618189708029197        0        
C1        C        0.5        0.351852        0.618189708029197        0        
C2        C        0.53125        0.407408        0.618189708029197        0        
C3        C        0.5        0.425925        0.618189708029197        0        
C4        C        0.53125        0.37037        0.618189708029197        0        
C1        C        0.5        0.46296300000000007        0.618189708029197        0        
C2        C        0.53125        0.518519        0.618189708029197        0        
C3        C        0.5        0.537037        0.618189708029197        0        
C4        C        0.53125        0.481481        0.618189708029197        0        
C1        C        0.5        0.574075        0.618189708029197        0        
C2        C        0.53125        0.62963        0.618189708029197        0        
C3        C        0.5        0.648148        0.618189708029197        0        
C4        C        0.53125        0.592592        0.618189708029197        0        
C1        C        0.5625        0.018519        0.618189708029197        0        
C2        C        0.59375        0.074075        0.618189708029197        0        
C3        C        0.5625        0.092592        0.618189708029197        0        
C4        C        0.59375        0.037037        0.618189708029197        0        
C1        C        0.5625        0.12963        0.618189708029197        0        
C2        C        0.59375        0.185185        0.618189708029197        0        
C3        C        0.5625        0.203703        0.618189708029197        0        
C4        C        0.59375        0.148148        0.618189708029197        0        
C1        C        0.5625        0.24074099999999998        0.618189708029197        0        
C2        C        0.59375        0.296297        0.618189708029197        0        
C3        C        0.5625        0.314815        0.618189708029197        0        
C4        C        0.59375        0.259259        0.618189708029197        0        
C1        C        0.5625        0.351852        0.618189708029197        0        
C2        C        0.59375        0.407408        0.618189708029197        0        
C3        C        0.5625        0.425925        0.618189708029197        0        
C4        C        0.59375        0.37037        0.618189708029197        0        
C1        C        0.5625        0.46296300000000007        0.618189708029197        0        
C2        C        0.59375        0.518519        0.618189708029197        0        
C3        C        0.5625        0.537037        0.618189708029197        0        
C4        C        0.59375        0.481481        0.618189708029197        0        
C1        C        0.5625        0.574075        0.618189708029197        0        
C2        C        0.59375        0.62963        0.618189708029197        0        
C3        C        0.5625        0.648148        0.618189708029197        0        
C4        C        0.59375        0.592592        0.618189708029197        0        
C1        C        0.625        0.018519        0.618189708029197        0        
C2        C        0.65625        0.074075        0.618189708029197        0        
C3        C        0.625        0.092592        0.618189708029197        0        
C4        C        0.65625        0.037037        0.618189708029197        0        
C1        C        0.625        0.12963        0.618189708029197        0        
C2        C        0.65625        0.185185        0.618189708029197        0        
C3        C        0.625        0.203703        0.618189708029197        0        
C4        C        0.65625        0.148148        0.618189708029197        0        
C1        C        0.625        0.24074099999999998        0.618189708029197        0        
C2        C        0.65625        0.296297        0.618189708029197        0        
C3        C        0.625        0.314815        0.618189708029197        0        
C4        C        0.65625        0.259259        0.618189708029197        0        
C1        C        0.625        0.351852        0.618189708029197        0        
C2        C        0.65625        0.407408        0.618189708029197        0        
C3        C        0.625        0.425925        0.618189708029197        0        
C4        C        0.65625        0.37037        0.618189708029197        0        
C1        C        0.625        0.46296300000000007        0.618189708029197        0        
C2        C        0.65625        0.518519        0.618189708029197        0        
C3        C        0.625        0.537037        0.618189708029197        0        
C4        C        0.65625        0.481481        0.618189708029197        0        
C1        C        0.625        0.574075        0.618189708029197        0        
C2        C        0.65625        0.62963        0.618189708029197        0        
C3        C        0.625        0.648148        0.618189708029197        0        
C4        C        0.65625        0.592592        0.618189708029197        0        
C1        C        0.6875        0.018519        0.618189708029197        0        
C2        C        0.71875        0.074075        0.618189708029197        0        
C3        C        0.6875        0.092592        0.618189708029197        0        
C4        C        0.71875        0.037037        0.618189708029197        0        
C1        C        0.6875        0.12963        0.618189708029197        0        
C2        C        0.71875        0.185185        0.618189708029197        0        
C3        C        0.6875        0.203703        0.618189708029197        0        
C4        C        0.71875        0.148148        0.618189708029197        0        
C1        C        0.6875        0.24074099999999998        0.618189708029197        0        
C2        C        0.71875        0.296297        0.618189708029197        0        
C3        C        0.6875        0.314815        0.618189708029197        0        
C4        C        0.71875        0.259259        0.618189708029197        0        
C1        C        0.6875        0.351852        0.618189708029197        0        
C2        C        0.71875        0.407408        0.618189708029197        0        
C3        C        0.6875        0.425925        0.618189708029197        0        
C4        C        0.71875        0.37037        0.618189708029197        0        
C1        C        0.6875        0.46296300000000007        0.618189708029197        0        
C2        C        0.71875        0.518519        0.618189708029197        0        
C3        C        0.6875        0.537037        0.618189708029197        0        
C4        C        0.71875        0.481481        0.618189708029197        0        
C1        C        0.6875        0.574075        0.618189708029197        0        
C2        C        0.71875        0.62963        0.618189708029197        0        
C3        C        0.6875        0.648148        0.618189708029197        0        
C4        C        0.71875        0.592592        0.618189708029197        0        
C_FG        C        0.75        0.018519        0.618189708029197        0.2        
C2        C        0.78125        0.074075        0.618189708029197        0        
C3        C        0.75        0.092592        0.618189708029197        0        
C4        C        0.78125        0.037037        0.618189708029197        0        
C_FG        C        0.75        0.12963        0.618189708029197        0.2        
C2        C        0.78125        0.185185        0.618189708029197        0        
C3        C        0.75        0.203703        0.618189708029197        0        
C4        C        0.78125        0.148148        0.618189708029197        0        
C_FG        C        0.75        0.24074099999999998        0.618189708029197        0.2        
C2        C        0.78125        0.296297        0.618189708029197        0        
C3        C        0.75        0.314815        0.618189708029197        0        
C4        C        0.78125        0.259259        0.618189708029197        0        
C_FG        C        0.75        0.351852        0.618189708029197        0.2        
C2        C        0.78125        0.407408        0.618189708029197        0        
C3        C        0.75        0.425925        0.618189708029197        0        
C4        C        0.78125        0.37037        0.618189708029197        0        
C_FG        C        0.75        0.46296300000000007        0.618189708029197        0.2        
C2        C        0.78125        0.518519        0.618189708029197        0        
C3        C        0.75        0.537037        0.618189708029197        0        
C4        C        0.78125        0.481481        0.618189708029197        0        
C_FG        C        0.75        0.574075        0.618189708029197        0.2        
C2        C        0.78125        0.62963        0.618189708029197        0        
C3        C        0.75        0.648148        0.618189708029197        0        
C4        C        0.78125        0.592592        0.618189708029197        0        
C1        C        0.8125        0.018519        0.618189708029197        0        
C2        C        0.84375        0.074075        0.618189708029197        0        
C3        C        0.8125        0.092592        0.618189708029197        0        
C4        C        0.84375        0.037037        0.618189708029197        0        
C1        C        0.8125        0.12963        0.618189708029197        0        
C2        C        0.84375        0.185185        0.618189708029197        0        
C3        C        0.8125        0.203703        0.618189708029197        0        
C4        C        0.84375        0.148148        0.618189708029197        0        
C1        C        0.8125        0.24074099999999998        0.618189708029197        0        
C2        C        0.84375        0.296297        0.618189708029197        0        
C3        C        0.8125        0.314815        0.618189708029197        0        
C4        C        0.84375        0.259259        0.618189708029197        0        
C1        C        0.8125        0.351852        0.618189708029197        0        
C2        C        0.84375        0.407408        0.618189708029197        0        
C3        C        0.8125        0.425925        0.618189708029197        0        
C4        C        0.84375        0.37037        0.618189708029197        0        
C1        C        0.8125        0.46296300000000007        0.618189708029197        0        
C2        C        0.84375        0.518519        0.618189708029197        0        
C3        C        0.8125        0.537037        0.618189708029197        0        
C4        C        0.84375        0.481481        0.618189708029197        0        
C1        C        0.8125        0.574075        0.618189708029197        0        
C2        C        0.84375        0.62963        0.618189708029197        0        
C3        C        0.8125        0.648148        0.618189708029197        0        
C4        C        0.84375        0.592592        0.618189708029197        0        
C1        C        0.875        0.018519        0.618189708029197        0        
C2        C        0.9062500000000001        0.074075        0.618189708029197        0        
C3        C        0.875        0.092592        0.618189708029197        0        
C4        C        0.9062500000000001        0.037037        0.618189708029197        0        
C1        C        0.875        0.12963        0.618189708029197        0        
C2        C        0.9062500000000001        0.185185        0.618189708029197        0        
C3        C        0.875        0.203703        0.618189708029197        0        
C4        C        0.9062500000000001        0.148148        0.618189708029197        0        
C1        C        0.875        0.24074099999999998        0.618189708029197        0        
C2        C        0.9062500000000001        0.296297        0.618189708029197        0        
C3        C        0.875        0.314815        0.618189708029197        0        
C4        C        0.9062500000000001        0.259259        0.618189708029197        0        
C1        C        0.875        0.351852        0.618189708029197        0        
C2        C        0.9062500000000001        0.407408        0.618189708029197        0        
C3        C        0.875        0.425925        0.618189708029197        0        
C4        C        0.9062500000000001        0.37037        0.618189708029197        0        
C1        C        0.875        0.46296300000000007        0.618189708029197        0        
C2        C        0.9062500000000001        0.518519        0.618189708029197        0        
C3        C        0.875        0.537037        0.618189708029197        0        
C4        C        0.9062500000000001        0.481481        0.618189708029197        0        
C1        C        0.875        0.574075        0.618189708029197        0        
C2        C        0.9062500000000001        0.62963        0.618189708029197        0        
C3        C        0.875        0.648148        0.618189708029197        0        
C4        C        0.9062500000000001        0.592592        0.618189708029197        0        
C1        C        0.9375        0.018519        0.618189708029197        0        
C2        C        0.9687500000000001        0.074075        0.618189708029197        0        
C3        C        0.9375        0.092592        0.618189708029197        0        
C4        C        0.9687500000000001        0.037037        0.618189708029197        0        
C1        C        0.9375        0.12963        0.618189708029197        0        
C2        C        0.9687500000000001        0.185185        0.618189708029197        0        
C3        C        0.9375        0.203703        0.618189708029197        0        
C4        C        0.9687500000000001        0.148148        0.618189708029197        0        
C1        C        0.9375        0.24074099999999998        0.618189708029197        0        
C2        C        0.9687500000000001        0.296297        0.618189708029197        0        
C3        C        0.9375        0.314815        0.618189708029197        0        
C4        C        0.9687500000000001        0.259259        0.618189708029197        0        
C1        C        0.9375        0.351852        0.618189708029197        0        
C2        C        0.9687500000000001        0.407408        0.618189708029197        0        
C3        C        0.9375        0.425925        0.618189708029197        0        
C4        C        0.9687500000000001        0.37037        0.618189708029197        0        
C1        C        0.9375        0.46296300000000007        0.618189708029197        0        
C2        C        0.9687500000000001        0.518519        0.618189708029197        0        
C3        C        0.9375        0.537037        0.618189708029197        0        
C4        C        0.9687500000000001        0.481481        0.618189708029197        0        
C1        C        0.9375        0.574075        0.618189708029197        0        
C2        C        0.9687500000000001        0.62963        0.618189708029197        0        
C3        C        0.9375        0.648148        0.618189708029197        0        
C4        C        0.9687500000000001        0.592592        0.618189708029197        0        
C_FG        C        0.0        0.685186        0.618189708029197        0.2        
C1        C        0.0625        0.685186        0.618189708029197        0        
C1        C        0.125        0.685186        0.618189708029197        0        
C1        C        0.1875        0.685186        0.618189708029197        0        
C_FG        C        0.25        0.685186        0.618189708029197        0.2        
C1        C        0.3125        0.685186        0.618189708029197        0        
C1        C        0.375        0.685186        0.618189708029197        0        
C1        C        0.4375        0.685186        0.618189708029197        0        
C1        C        0.5        0.685186        0.618189708029197        0        
C1        C        0.5625        0.685186        0.618189708029197        0        
C1        C        0.625        0.685186        0.618189708029197        0        
C1        C        0.6875        0.685186        0.618189708029197        0        
C_FG        C        0.75        0.685186        0.618189708029197        0.2        
C1        C        0.8125        0.685186        0.618189708029197        0        
C1        C        0.875        0.685186        0.618189708029197        0        
C1        C        0.9375        0.685186        0.618189708029197        0        
C2        C        0.03125        0.740741        0.618189708029197        0        
C2        C        0.09375        0.740741        0.618189708029197        0        
C2        C        0.15625        0.740741        0.618189708029197        0        
C2        C        0.21875        0.740741        0.618189708029197        0        
C2        C        0.28125        0.740741        0.618189708029197        0        
C2        C        0.34375        0.740741        0.618189708029197        0        
C2        C        0.40625        0.740741        0.618189708029197        0        
C2        C        0.46875        0.740741        0.618189708029197        0        
C2        C        0.53125        0.740741        0.618189708029197        0        
C2        C        0.59375        0.740741        0.618189708029197        0        
C2        C        0.65625        0.740741        0.618189708029197        0        
C2        C        0.71875        0.740741        0.618189708029197        0        
C2        C        0.78125        0.740741        0.618189708029197        0        
C2        C        0.84375        0.740741        0.618189708029197        0        
C2        C        0.9062500000000001        0.740741        0.618189708029197        0        
C2        C        0.9687500000000001        0.740741        0.618189708029197        0        
C3        C        0.0        0.759259        0.618189708029197        0        
C3        C        0.0625        0.759259        0.618189708029197        0        
C3        C        0.125        0.759259        0.618189708029197        0        
C3        C        0.1875        0.759259        0.618189708029197        0        
C3        C        0.25        0.759259        0.618189708029197        0        
C3        C        0.3125        0.759259        0.618189708029197        0        
C3        C        0.375        0.759259        0.618189708029197        0        
C3        C        0.4375        0.759259        0.618189708029197        0        
C3        C        0.5        0.759259        0.618189708029197        0        
C3        C        0.5625        0.759259        0.618189708029197        0        
C3        C        0.625        0.759259        0.618189708029197        0        
C3        C        0.6875        0.759259        0.618189708029197        0        
C3        C        0.75        0.759259        0.618189708029197        0        
C3        C        0.8125        0.759259        0.618189708029197        0        
C3        C        0.875        0.759259        0.618189708029197        0        
C3        C        0.9375        0.759259        0.618189708029197        0        
C4        C        0.03125        0.703703        0.618189708029197        0        
C4        C        0.09375        0.703703        0.618189708029197        0        
C4        C        0.15625        0.703703        0.618189708029197        0        
C4        C        0.21875        0.703703        0.618189708029197        0        
C4        C        0.28125        0.703703        0.618189708029197        0        
C4        C        0.34375        0.703703        0.618189708029197        0        
C4        C        0.40625        0.703703        0.618189708029197        0        
C4        C        0.46875        0.703703        0.618189708029197        0        
C4        C        0.53125        0.703703        0.618189708029197        0        
C4        C        0.59375        0.703703        0.618189708029197        0        
C4        C        0.65625        0.703703        0.618189708029197        0        
C4        C        0.71875        0.703703        0.618189708029197        0        
C4        C        0.78125        0.703703        0.618189708029197        0        
C4        C        0.84375        0.703703        0.618189708029197        0        
C4        C        0.9062500000000001        0.703703        0.618189708029197        0        
C4        C        0.9687500000000001        0.703703        0.618189708029197        0        
C_FG        C        0.0        0.796297        0.618189708029197        0.2        
C1        C        0.0625        0.796297        0.618189708029197        0        
C1        C        0.125        0.796297        0.618189708029197        0        
C1        C        0.1875        0.796297        0.618189708029197        0        
C_FG        C        0.25        0.796297        0.618189708029197        0.2        
C1        C        0.3125        0.796297        0.618189708029197        0        
C1        C        0.375        0.796297        0.618189708029197        0        
C1        C        0.4375        0.796297        0.618189708029197        0        
C1        C        0.5        0.796297        0.618189708029197        0        
C1        C        0.5625        0.796297        0.618189708029197        0        
C1        C        0.625        0.796297        0.618189708029197        0        
C1        C        0.6875        0.796297        0.618189708029197        0        
C_FG        C        0.75        0.796297        0.618189708029197        0.2        
C1        C        0.8125        0.796297        0.618189708029197        0        
C1        C        0.875        0.796297        0.618189708029197        0        
C1        C        0.9375        0.796297        0.618189708029197        0        
C2        C        0.03125        0.851852        0.618189708029197        0        
C2        C        0.09375        0.851852        0.618189708029197        0        
C2        C        0.15625        0.851852        0.618189708029197        0        
C2        C        0.21875        0.851852        0.618189708029197        0        
C2        C        0.28125        0.851852        0.618189708029197        0        
C2        C        0.34375        0.851852        0.618189708029197        0        
C2        C        0.40625        0.851852        0.618189708029197        0        
C2        C        0.46875        0.851852        0.618189708029197        0        
C2        C        0.53125        0.851852        0.618189708029197        0        
C2        C        0.59375        0.851852        0.618189708029197        0        
C2        C        0.65625        0.851852        0.618189708029197        0        
C2        C        0.71875        0.851852        0.618189708029197        0        
C2        C        0.78125        0.851852        0.618189708029197        0        
C2        C        0.84375        0.851852        0.618189708029197        0        
C2        C        0.9062500000000001        0.851852        0.618189708029197        0        
C2        C        0.9687500000000001        0.851852        0.618189708029197        0        
C3        C        0.0        0.87037        0.618189708029197        0        
C3        C        0.0625        0.87037        0.618189708029197        0        
C3        C        0.125        0.87037        0.618189708029197        0        
C3        C        0.1875        0.87037        0.618189708029197        0        
C3        C        0.25        0.87037        0.618189708029197        0        
C3        C        0.3125        0.87037        0.618189708029197        0        
C3        C        0.375        0.87037        0.618189708029197        0        
C3        C        0.4375        0.87037        0.618189708029197        0        
C3        C        0.5        0.87037        0.618189708029197        0        
C3        C        0.5625        0.87037        0.618189708029197        0        
C3        C        0.625        0.87037        0.618189708029197        0        
C3        C        0.6875        0.87037        0.618189708029197        0        
C3        C        0.75        0.87037        0.618189708029197        0        
C3        C        0.8125        0.87037        0.618189708029197        0        
C3        C        0.875        0.87037        0.618189708029197        0        
C3        C        0.9375        0.87037        0.618189708029197        0        
C4        C        0.03125        0.814814        0.618189708029197        0        
C4        C        0.09375        0.814814        0.618189708029197        0        
C4        C        0.15625        0.814814        0.618189708029197        0        
C4        C        0.21875        0.814814        0.618189708029197        0        
C4        C        0.28125        0.814814        0.618189708029197        0        
C4        C        0.34375        0.814814        0.618189708029197        0        
C4        C        0.40625        0.814814        0.618189708029197        0        
C4        C        0.46875        0.814814        0.618189708029197        0        
C4        C        0.53125        0.814814        0.618189708029197        0        
C4        C        0.59375        0.814814        0.618189708029197        0        
C4        C        0.65625        0.814814        0.618189708029197        0        
C4        C        0.71875        0.814814        0.618189708029197        0        
C4        C        0.78125        0.814814        0.618189708029197        0        
C4        C        0.84375        0.814814        0.618189708029197        0        
C4        C        0.9062500000000001        0.814814        0.618189708029197        0        
C4        C        0.9687500000000001        0.814814        0.618189708029197        0        
C_FG        C        0.0        0.907408        0.618189708029197        0.2        
C1        C        0.0625        0.907408        0.618189708029197        0        
C1        C        0.125        0.907408        0.618189708029197        0        
C1        C        0.1875        0.907408        0.618189708029197        0        
C_FG        C        0.25        0.907408        0.618189708029197        0.2        
C1        C        0.3125        0.907408        0.618189708029197        0        
C1        C        0.375        0.907408        0.618189708029197        0        
C1        C        0.4375        0.907408        0.618189708029197        0        
C1        C        0.5        0.907408        0.618189708029197        0        
C1        C        0.5625        0.907408        0.618189708029197        0        
C1        C        0.625        0.907408        0.618189708029197        0        
C1        C        0.6875        0.907408        0.618189708029197        0        
C_FG        C        0.75        0.907408        0.618189708029197        0.2        
C1        C        0.8125        0.907408        0.618189708029197        0        
C1        C        0.875        0.907408        0.618189708029197        0        
C1        C        0.9375        0.907408        0.618189708029197        0        
C2        C        0.03125        0.962963        0.618189708029197        0        
C2        C        0.09375        0.962963        0.618189708029197        0        
C2        C        0.15625        0.962963        0.618189708029197        0        
C2        C        0.21875        0.962963        0.618189708029197        0        
C2        C        0.28125        0.962963        0.618189708029197        0        
C2        C        0.34375        0.962963        0.618189708029197        0        
C2        C        0.40625        0.962963        0.618189708029197        0        
C2        C        0.46875        0.962963        0.618189708029197        0        
C2        C        0.53125        0.962963        0.618189708029197        0        
C2        C        0.59375        0.962963        0.618189708029197        0        
C2        C        0.65625        0.962963        0.618189708029197        0        
C2        C        0.71875        0.962963        0.618189708029197        0        
C2        C        0.78125        0.962963        0.618189708029197        0        
C2        C        0.84375        0.962963        0.618189708029197        0        
C2        C        0.9062500000000001        0.962963        0.618189708029197        0        
C2        C        0.9687500000000001        0.962963        0.618189708029197        0        
C3        C        0.0        0.9814809999999999        0.618189708029197        0        
C3        C        0.0625        0.9814809999999999        0.618189708029197        0        
C3        C        0.125        0.9814809999999999        0.618189708029197        0        
C3        C        0.1875        0.9814809999999999        0.618189708029197        0        
C3        C        0.25        0.9814809999999999        0.618189708029197        0        
C3        C        0.3125        0.9814809999999999        0.618189708029197        0        
C3        C        0.375        0.9814809999999999        0.618189708029197        0        
C3        C        0.4375        0.9814809999999999        0.618189708029197        0        
C3        C        0.5        0.9814809999999999        0.618189708029197        0        
C3        C        0.5625        0.9814809999999999        0.618189708029197        0        
C3        C        0.625        0.9814809999999999        0.618189708029197        0        
C3        C        0.6875        0.9814809999999999        0.618189708029197        0        
C3        C        0.75        0.9814809999999999        0.618189708029197        0        
C3        C        0.8125        0.9814809999999999        0.618189708029197        0        
C3        C        0.875        0.9814809999999999        0.618189708029197        0        
C3        C        0.9375        0.9814809999999999        0.618189708029197        0        
C4        C        0.03125        0.925925        0.618189708029197        0        
C4        C        0.09375        0.925925        0.618189708029197        0        
C4        C        0.15625        0.925925        0.618189708029197        0        
C4        C        0.21875        0.925925        0.618189708029197        0        
C4        C        0.28125        0.925925        0.618189708029197        0        
C4        C        0.34375        0.925925        0.618189708029197        0        
C4        C        0.40625        0.925925        0.618189708029197        0        
C4        C        0.46875        0.925925        0.618189708029197        0        
C4        C        0.53125        0.925925        0.618189708029197        0        
C4        C        0.59375        0.925925        0.618189708029197        0        
C4        C        0.65625        0.925925        0.618189708029197        0        
C4        C        0.71875        0.925925        0.618189708029197        0        
C4        C        0.78125        0.925925        0.618189708029197        0        
C4        C        0.84375        0.925925        0.618189708029197        0        
C4        C        0.9062500000000001        0.925925        0.618189708029197        0        
C4        C        0.9687500000000001        0.925925        0.618189708029197        0        
O_OH        O        0.0        0.018519        0.024540072992700723        -0.64        
O_OH        O        0.0        0.12963        0.024540072992700723        -0.64        
O_OH        O        0.0        0.24074099999999998        0.024540072992700723        -0.64        
O_OH        O        0.0        0.351852        0.024540072992700723        -0.64        
O_OH        O        0.0        0.46296300000000007        0.024540072992700723        -0.64        
O_OH        O        0.0        0.574075        0.024540072992700723        -0.64        
O_OH        O        0.25        0.018519        0.024540072992700723        -0.64        
O_OH        O        0.25        0.12963        0.024540072992700723        -0.64        
O_OH        O        0.25        0.24074099999999998        0.024540072992700723        -0.64        
O_OH        O        0.25        0.351852        0.024540072992700723        -0.64        
O_OH        O        0.25        0.46296300000000007        0.024540072992700723        -0.64        
O_OH        O        0.25        0.574075        0.024540072992700723        -0.64        
O_OH        O        0.75        0.018519        0.024540072992700723        -0.64        
O_OH        O        0.75        0.12963        0.024540072992700723        -0.64        
O_OH        O        0.75        0.24074099999999998        0.024540072992700723        -0.64        
O_OH        O        0.75        0.351852        0.024540072992700723        -0.64        
O_OH        O        0.75        0.46296300000000007        0.024540072992700723        -0.64        
O_OH        O        0.75        0.574075        0.024540072992700723        -0.64        
O_OH        O        0.0        0.685186        0.024540072992700723        -0.64        
O_OH        O        0.25        0.685186        0.024540072992700723        -0.64        
O_OH        O        0.75        0.685186        0.024540072992700723        -0.64        
O_OH        O        0.0        0.796297        0.024540072992700723        -0.64        
O_OH        O        0.25        0.796297        0.024540072992700723        -0.64        
O_OH        O        0.75        0.796297        0.024540072992700723        -0.64        
O_OH        O        0.0        0.907408        0.024540072992700723        -0.64        
O_OH        O        0.25        0.907408        0.024540072992700723        -0.64        
O_OH        O        0.75        0.907408        0.024540072992700723        -0.64        
O_OH        O        0.0        0.018519        0.7227882481751825        -0.64        
O_OH        O        0.0        0.12963        0.7227882481751825        -0.64        
O_OH        O        0.0        0.24074099999999998        0.7227882481751825        -0.64        
O_OH        O        0.0        0.351852        0.7227882481751825        -0.64        
O_OH        O        0.0        0.46296300000000007        0.7227882481751825        -0.64        
O_OH        O        0.0        0.574075        0.7227882481751825        -0.64        
O_OH        O        0.25        0.018519        0.7227882481751825        -0.64        
O_OH        O        0.25        0.12963        0.7227882481751825        -0.64        
O_OH        O        0.25        0.24074099999999998        0.7227882481751825        -0.64        
O_OH        O        0.25        0.351852        0.7227882481751825        -0.64        
O_OH        O        0.25        0.46296300000000007        0.7227882481751825        -0.64        
O_OH        O        0.25        0.574075        0.7227882481751825        -0.64        
O_OH        O        0.75        0.018519        0.7227882481751825        -0.64        
O_OH        O        0.75        0.12963        0.7227882481751825        -0.64        
O_OH        O        0.75        0.24074099999999998        0.7227882481751825        -0.64        
O_OH        O        0.75        0.351852        0.7227882481751825        -0.64        
O_OH        O        0.75        0.46296300000000007        0.7227882481751825        -0.64        
O_OH        O        0.75        0.574075        0.7227882481751825        -0.64        
O_OH        O        0.0        0.685186        0.7227882481751825        -0.64        
O_OH        O        0.25        0.685186        0.7227882481751825        -0.64        
O_OH        O        0.75        0.685186        0.7227882481751825        -0.64        
O_OH        O        0.0        0.796297        0.7227882481751825        -0.64        
O_OH        O        0.25        0.796297        0.7227882481751825        -0.64        
O_OH        O        0.75        0.796297        0.7227882481751825        -0.64        
O_OH        O        0.0        0.907408        0.7227882481751825        -0.64        
O_OH        O        0.25        0.907408        0.7227882481751825        -0.64        
O_OH        O        0.75        0.907408        0.7227882481751825        -0.64        
H_OH        H        -0.006194706145452818        0.04109378632796279        0.0        0.44        
H_OH        H        0.022524816580528625        0.13354686288353235        0.0        0.44        
H_OH        H        0.017630222101381376        0.25565680440674193        0.0        0.44        
H_OH        H        -0.021229274904832885        0.3605170620812068        0.0        0.44        
H_OH        H        0.01049923177885419        0.48379295737579353        0.0        0.44        
H_OH        H        0.0012631192839715503        0.5974925758869769        0.0        0.44        
H_OH        H        0.2436825956629893        0.041057921713212014        0.0        0.44        
H_OH        H        0.23774199834859014        0.14942152387959423        0.0        0.44        
H_OH        H        0.2693555237610227        0.25320010082297195        0.0        0.44        
H_OH        H        0.22730222012066917        0.35451625284455945        0.0        0.44        
H_OH        H        0.2696323954078311        0.4749568542821318        0.0        0.44        
H_OH        H        0.22715953965833882        0.5745755116030222        0.0        0.44        
H_OH        H        0.7657526553494753        0.03550544091233693        0.0        0.44        
H_OH        H        0.7495133597635592        0.15307812924246922        0.0        0.44        
H_OH        H        0.7656017241390988        0.2578736203054707        0.0        0.44        
H_OH        H        0.7647191321921673        0.36978884651474647        0.0        0.44        
H_OH        H        0.7332427525882494        0.47890411459432347        0.0        0.44        
H_OH        H        0.7421849861225985        0.596113535017461        0.0        0.44        
H_OH        H        -0.01991875719002555        0.6966714670633993        0.0        0.44        
H_OH        H        0.23033719082265838        0.697127230653169        0.0        0.44        
H_OH        H        0.7295159824945501        0.6955709185001969        0.0        0.44        
H_OH        H        -0.01678749969897489        0.8122045332791761        0.0        0.44        
H_OH        H        0.24242311332539077        0.8184229998684406        0.0        0.44        
H_OH        H        0.767394153966255        0.8115021025817973        0.0        0.44        
H_OH        H        -0.01899428312864243        0.9204398696427122        0.0        0.44        
H_OH        H        0.2614498698073825        0.9277032330113962        0.0        0.44        
H_OH        H        0.7612965222442615        0.9277935991102169        0.0        0.44        
H_OH        H        -0.022650131150488757        0.021580946022208926        0.7473283211678833        0.44        
H_OH        H        0.022820629317088743        0.13072765169789136        0.7473283211678833        0.44        
H_OH        H        -0.003872556202158725        0.26385504551600475        0.7473283211678833        0.44        
H_OH        H        0.01401868880948411        0.3703707733006107        0.7473283211678833        0.44        
H_OH        H        0.017860029087006807        0.4775878275285126        0.7473283211678833        0.44        
H_OH        H        -0.022177820741053653        0.5797043665433669        0.7473283211678833        0.44        
H_OH        H        0.2624745714058279        0.03816739176425789        0.7473283211678833        0.44        
H_OH        H        0.27263913539331275        0.13277648260675853        0.7473283211678833        0.44        
H_OH        H        0.22724306898872235        0.2428060864459069        0.7473283211678833        0.44        
H_OH        H        0.2698361262025628        0.36348720742916274        0.7473283211678833        0.44        
H_OH        H        0.24289143262494975        0.48525219373682754        0.7473283211678833        0.44        
H_OH        H        0.23348842859980135        0.5902840455888043        0.7473283211678833        0.44        
H_OH        H        0.7698317808137534        0.030162011552802136        0.7473283211678833        0.44        
H_OH        H        0.755487079967796        0.15239692782437808        0.7473283211678833        0.44        
H_OH        H        0.7675110015652152        0.2558040893359749        0.7473283211678833        0.44        
H_OH        H        0.7719358682676657        0.3584047590246916        0.7473283211678833        0.44        
H_OH        H        0.7271893060225364        0.4642601682267523        0.7473283211678833        0.44        
H_OH        H        0.7306018700527155        0.5864640687670898        0.7473283211678833        0.44        
H_OH        H        -0.008366656489731094        0.7070100520172861        0.7473283211678833        0.44        
H_OH        H        0.27030503218670604        0.695934990373664        0.7473283211678833        0.44        
H_OH        H        0.7300579579699538        0.6966288038150601        0.7473283211678833        0.44        
H_OH        H        -0.004476184450083134        0.8192958663470546        0.7473283211678833        0.44        
H_OH        H        0.23319845940412634        0.8121889025588305        0.7473283211678833        0.44        
H_OH        H        0.7327865655157415        0.8117173312033396        0.7473283211678833        0.44        
H_OH        H        -0.013630561308715062        0.9262296628914489        0.7473283211678833        0.44        
H_OH        H        0.23194573019742504        0.9217792714355845        0.7473283211678833        0.44        
H_OH        H        0.7728340976098783        0.9081541873743479        0.7473283211678833        0.44        
