data_graphite_ortho

_audit_creation_method RASPA-1.0
_audit_creation_date 2012-2-3
_audit_author_name 'David Dubbeldam'

_cell_length_a    39.36    
_cell_length_b    38.34    
_cell_length_c    15.6    
_cell_angle_alpha 90
_cell_angle_beta  90
_cell_angle_gamma 90
_cell_volume      23541.37      

_symmetry_cell_setting          triclinic
_symmetry_space_group_name_Hall 'P 1'
_symmetry_space_group_name_H-M  'P 1'
_symmetry_Int_Tables_number     1

_symmetry_equiv_pos_as_xyz 'x,y,z'

loop_
_atom_site_label
_atom_site_type_symbol
_atom_site_fract_x
_atom_site_fract_y
_atom_site_fract_z
_atom_site_charge
C_FG        C        0.0        0.018519        0.11341019230769231        0.2        
C2        C        0.03125        0.074075        0.11341019230769231        0        
C3        C        0.0        0.092592        0.11341019230769231        0        
C4        C        0.03125        0.037037        0.11341019230769231        0        
C1        C        0.0        0.12963        0.11341019230769231        0        
C2        C        0.03125        0.185185        0.11341019230769231        0        
C_FG        C        0.0        0.203703        0.11341019230769231        0.2        
C4        C        0.03125        0.148148        0.11341019230769231        0        
C1        C        0.0        0.24074099999999998        0.11341019230769231        0        
C2        C        0.03125        0.296297        0.11341019230769231        0        
C3        C        0.0        0.314815        0.11341019230769231        0        
C4        C        0.03125        0.259259        0.11341019230769231        0        
C_FG        C        0.0        0.351852        0.11341019230769231        0.2        
C2        C        0.03125        0.407408        0.11341019230769231        0        
C3        C        0.0        0.42592500000000005        0.11341019230769231        0        
C4        C        0.03125        0.37037        0.11341019230769231        0        
C1        C        0.0        0.46296300000000007        0.11341019230769231        0        
C2        C        0.03125        0.518519        0.11341019230769231        0        
C_FG        C        0.0        0.537037        0.11341019230769231        0.2        
C4        C        0.03125        0.481481        0.11341019230769231        0        
C1        C        0.0        0.574075        0.11341019230769231        0        
C2        C        0.03125        0.62963        0.11341019230769231        0        
C3        C        0.0        0.648148        0.11341019230769231        0        
C4        C        0.03125        0.592592        0.11341019230769231        0        
C1        C        0.0625        0.018519        0.11341019230769231        0        
C2        C        0.09375        0.074075        0.11341019230769231        0        
C3        C        0.0625        0.092592        0.11341019230769231        0        
C4        C        0.09375        0.037037        0.11341019230769231        0        
C1        C        0.0625        0.12963        0.11341019230769231        0        
C2        C        0.09375        0.185185        0.11341019230769231        0        
C3        C        0.0625        0.203703        0.11341019230769231        0        
C4        C        0.09375        0.148148        0.11341019230769231        0        
C1        C        0.0625        0.24074099999999998        0.11341019230769231        0        
C2        C        0.09375        0.296297        0.11341019230769231        0        
C3        C        0.0625        0.314815        0.11341019230769231        0        
C4        C        0.09375        0.259259        0.11341019230769231        0        
C1        C        0.0625        0.351852        0.11341019230769231        0        
C2        C        0.09375        0.407408        0.11341019230769231        0        
C3        C        0.0625        0.42592500000000005        0.11341019230769231        0        
C4        C        0.09375        0.37037        0.11341019230769231        0        
C1        C        0.0625        0.46296300000000007        0.11341019230769231        0        
C2        C        0.09375        0.518519        0.11341019230769231        0        
C3        C        0.0625        0.537037        0.11341019230769231        0        
C4        C        0.09375        0.481481        0.11341019230769231        0        
C1        C        0.0625        0.574075        0.11341019230769231        0        
C2        C        0.09375        0.62963        0.11341019230769231        0        
C3        C        0.0625        0.648148        0.11341019230769231        0        
C4        C        0.09375        0.592592        0.11341019230769231        0        
C_FG        C        0.125        0.018519        0.11341019230769231        0.2        
C2        C        0.15625        0.074075        0.11341019230769231        0        
C3        C        0.125        0.092592        0.11341019230769231        0        
C4        C        0.15625        0.037037        0.11341019230769231        0        
C1        C        0.125        0.12963        0.11341019230769231        0        
C2        C        0.15625        0.185185        0.11341019230769231        0        
C_FG        C        0.125        0.203703        0.11341019230769231        0.2        
C4        C        0.15625        0.148148        0.11341019230769231        0        
C1        C        0.125        0.24074099999999998        0.11341019230769231        0        
C2        C        0.15625        0.296297        0.11341019230769231        0        
C3        C        0.125        0.314815        0.11341019230769231        0        
C4        C        0.15625        0.259259        0.11341019230769231        0        
C_FG        C        0.125        0.351852        0.11341019230769231        0.2        
C2        C        0.15625        0.407408        0.11341019230769231        0        
C3        C        0.125        0.42592500000000005        0.11341019230769231        0        
C4        C        0.15625        0.37037        0.11341019230769231        0        
C1        C        0.125        0.46296300000000007        0.11341019230769231        0        
C2        C        0.15625        0.518519        0.11341019230769231        0        
C_FG        C        0.125        0.537037        0.11341019230769231        0.2        
C4        C        0.15625        0.481481        0.11341019230769231        0        
C1        C        0.125        0.574075        0.11341019230769231        0        
C2        C        0.15625        0.62963        0.11341019230769231        0        
C3        C        0.125        0.648148        0.11341019230769231        0        
C4        C        0.15625        0.592592        0.11341019230769231        0        
C1        C        0.1875        0.018519        0.11341019230769231        0        
C2        C        0.21875        0.074075        0.11341019230769231        0        
C3        C        0.1875        0.092592        0.11341019230769231        0        
C4        C        0.21875        0.037037        0.11341019230769231        0        
C1        C        0.1875        0.12963        0.11341019230769231        0        
C2        C        0.21875        0.185185        0.11341019230769231        0        
C3        C        0.1875        0.203703        0.11341019230769231        0        
C4        C        0.21875        0.148148        0.11341019230769231        0        
C1        C        0.1875        0.24074099999999998        0.11341019230769231        0        
C2        C        0.21875        0.296297        0.11341019230769231        0        
C3        C        0.1875        0.314815        0.11341019230769231        0        
C4        C        0.21875        0.259259        0.11341019230769231        0        
C1        C        0.1875        0.351852        0.11341019230769231        0        
C2        C        0.21875        0.407408        0.11341019230769231        0        
C3        C        0.1875        0.42592500000000005        0.11341019230769231        0        
C4        C        0.21875        0.37037        0.11341019230769231        0        
C1        C        0.1875        0.46296300000000007        0.11341019230769231        0        
C2        C        0.21875        0.518519        0.11341019230769231        0        
C3        C        0.1875        0.537037        0.11341019230769231        0        
C4        C        0.21875        0.481481        0.11341019230769231        0        
C1        C        0.1875        0.574075        0.11341019230769231        0        
C2        C        0.21875        0.62963        0.11341019230769231        0        
C3        C        0.1875        0.648148        0.11341019230769231        0        
C4        C        0.21875        0.592592        0.11341019230769231        0        
C_FG        C        0.25        0.018519        0.11341019230769231        0.2        
C2        C        0.28125        0.074075        0.11341019230769231        0        
C3        C        0.25        0.092592        0.11341019230769231        0        
C4        C        0.28125        0.037037        0.11341019230769231        0        
C1        C        0.25        0.12963        0.11341019230769231        0        
C2        C        0.28125        0.185185        0.11341019230769231        0        
C_FG        C        0.25        0.203703        0.11341019230769231        0.2        
C4        C        0.28125        0.148148        0.11341019230769231        0        
C1        C        0.25        0.24074099999999998        0.11341019230769231        0        
C2        C        0.28125        0.296297        0.11341019230769231        0        
C3        C        0.25        0.314815        0.11341019230769231        0        
C4        C        0.28125        0.259259        0.11341019230769231        0        
C_FG        C        0.25        0.351852        0.11341019230769231        0.2        
C2        C        0.28125        0.407408        0.11341019230769231        0        
C3        C        0.25        0.42592500000000005        0.11341019230769231        0        
C4        C        0.28125        0.37037        0.11341019230769231        0        
C1        C        0.25        0.46296300000000007        0.11341019230769231        0        
C2        C        0.28125        0.518519        0.11341019230769231        0        
C_FG        C        0.25        0.537037        0.11341019230769231        0.2        
C4        C        0.28125        0.481481        0.11341019230769231        0        
C1        C        0.25        0.574075        0.11341019230769231        0        
C2        C        0.28125        0.62963        0.11341019230769231        0        
C3        C        0.25        0.648148        0.11341019230769231        0        
C4        C        0.28125        0.592592        0.11341019230769231        0        
C1        C        0.3125        0.018519        0.11341019230769231        0        
C2        C        0.34375        0.074075        0.11341019230769231        0        
C3        C        0.3125        0.092592        0.11341019230769231        0        
C4        C        0.34375        0.037037        0.11341019230769231        0        
C1        C        0.3125        0.12963        0.11341019230769231        0        
C2        C        0.34375        0.185185        0.11341019230769231        0        
C3        C        0.3125        0.203703        0.11341019230769231        0        
C4        C        0.34375        0.148148        0.11341019230769231        0        
C1        C        0.3125        0.24074099999999998        0.11341019230769231        0        
C2        C        0.34375        0.296297        0.11341019230769231        0        
C3        C        0.3125        0.314815        0.11341019230769231        0        
C4        C        0.34375        0.259259        0.11341019230769231        0        
C1        C        0.3125        0.351852        0.11341019230769231        0        
C2        C        0.34375        0.407408        0.11341019230769231        0        
C3        C        0.3125        0.42592500000000005        0.11341019230769231        0        
C4        C        0.34375        0.37037        0.11341019230769231        0        
C1        C        0.3125        0.46296300000000007        0.11341019230769231        0        
C2        C        0.34375        0.518519        0.11341019230769231        0        
C3        C        0.3125        0.537037        0.11341019230769231        0        
C4        C        0.34375        0.481481        0.11341019230769231        0        
C1        C        0.3125        0.574075        0.11341019230769231        0        
C2        C        0.34375        0.62963        0.11341019230769231        0        
C3        C        0.3125        0.648148        0.11341019230769231        0        
C4        C        0.34375        0.592592        0.11341019230769231        0        
C_FG        C        0.375        0.018519        0.11341019230769231        0.2        
C2        C        0.40625        0.074075        0.11341019230769231        0        
C3        C        0.375        0.092592        0.11341019230769231        0        
C4        C        0.40625        0.037037        0.11341019230769231        0        
C1        C        0.375        0.12963        0.11341019230769231        0        
C2        C        0.40625        0.185185        0.11341019230769231        0        
C_FG        C        0.375        0.203703        0.11341019230769231        0.2        
C4        C        0.40625        0.148148        0.11341019230769231        0        
C1        C        0.375        0.24074099999999998        0.11341019230769231        0        
C2        C        0.40625        0.296297        0.11341019230769231        0        
C3        C        0.375        0.314815        0.11341019230769231        0        
C4        C        0.40625        0.259259        0.11341019230769231        0        
C_FG        C        0.375        0.351852        0.11341019230769231        0.2        
C2        C        0.40625        0.407408        0.11341019230769231        0        
C3        C        0.375        0.42592500000000005        0.11341019230769231        0        
C4        C        0.40625        0.37037        0.11341019230769231        0        
C1        C        0.375        0.46296300000000007        0.11341019230769231        0        
C2        C        0.40625        0.518519        0.11341019230769231        0        
C_FG        C        0.375        0.537037        0.11341019230769231        0.2        
C4        C        0.40625        0.481481        0.11341019230769231        0        
C1        C        0.375        0.574075        0.11341019230769231        0        
C2        C        0.40625        0.62963        0.11341019230769231        0        
C3        C        0.375        0.648148        0.11341019230769231        0        
C4        C        0.40625        0.592592        0.11341019230769231        0        
C1        C        0.4375        0.018519        0.11341019230769231        0        
C2        C        0.46875        0.074075        0.11341019230769231        0        
C3        C        0.4375        0.092592        0.11341019230769231        0        
C4        C        0.46875        0.037037        0.11341019230769231        0        
C1        C        0.4375        0.12963        0.11341019230769231        0        
C2        C        0.46875        0.185185        0.11341019230769231        0        
C3        C        0.4375        0.203703        0.11341019230769231        0        
C4        C        0.46875        0.148148        0.11341019230769231        0        
C1        C        0.4375        0.24074099999999998        0.11341019230769231        0        
C2        C        0.46875        0.296297        0.11341019230769231        0        
C3        C        0.4375        0.314815        0.11341019230769231        0        
C4        C        0.46875        0.259259        0.11341019230769231        0        
C1        C        0.4375        0.351852        0.11341019230769231        0        
C2        C        0.46875        0.407408        0.11341019230769231        0        
C3        C        0.4375        0.42592500000000005        0.11341019230769231        0        
C4        C        0.46875        0.37037        0.11341019230769231        0        
C1        C        0.4375        0.46296300000000007        0.11341019230769231        0        
C2        C        0.46875        0.518519        0.11341019230769231        0        
C3        C        0.4375        0.537037        0.11341019230769231        0        
C4        C        0.46875        0.481481        0.11341019230769231        0        
C1        C        0.4375        0.574075        0.11341019230769231        0        
C2        C        0.46875        0.62963        0.11341019230769231        0        
C3        C        0.4375        0.648148        0.11341019230769231        0        
C4        C        0.46875        0.592592        0.11341019230769231        0        
C_FG        C        0.5        0.018519        0.11341019230769231        0.2        
C2        C        0.53125        0.074075        0.11341019230769231        0        
C3        C        0.5        0.092592        0.11341019230769231        0        
C4        C        0.53125        0.037037        0.11341019230769231        0        
C1        C        0.5        0.12963        0.11341019230769231        0        
C2        C        0.53125        0.185185        0.11341019230769231        0        
C_FG        C        0.5        0.203703        0.11341019230769231        0.2        
C4        C        0.53125        0.148148        0.11341019230769231        0        
C1        C        0.5        0.24074099999999998        0.11341019230769231        0        
C2        C        0.53125        0.296297        0.11341019230769231        0        
C3        C        0.5        0.314815        0.11341019230769231        0        
C4        C        0.53125        0.259259        0.11341019230769231        0        
C_FG        C        0.5        0.351852        0.11341019230769231        0.2        
C2        C        0.53125        0.407408        0.11341019230769231        0        
C3        C        0.5        0.42592500000000005        0.11341019230769231        0        
C4        C        0.53125        0.37037        0.11341019230769231        0        
C1        C        0.5        0.46296300000000007        0.11341019230769231        0        
C2        C        0.53125        0.518519        0.11341019230769231        0        
C_FG        C        0.5        0.537037        0.11341019230769231        0.2        
C4        C        0.53125        0.481481        0.11341019230769231        0        
C1        C        0.5        0.574075        0.11341019230769231        0        
C2        C        0.53125        0.62963        0.11341019230769231        0        
C3        C        0.5        0.648148        0.11341019230769231        0        
C4        C        0.53125        0.592592        0.11341019230769231        0        
C1        C        0.5625        0.018519        0.11341019230769231        0        
C2        C        0.59375        0.074075        0.11341019230769231        0        
C3        C        0.5625        0.092592        0.11341019230769231        0        
C4        C        0.59375        0.037037        0.11341019230769231        0        
C1        C        0.5625        0.12963        0.11341019230769231        0        
C2        C        0.59375        0.185185        0.11341019230769231        0        
C3        C        0.5625        0.203703        0.11341019230769231        0        
C4        C        0.59375        0.148148        0.11341019230769231        0        
C1        C        0.5625        0.24074099999999998        0.11341019230769231        0        
C2        C        0.59375        0.296297        0.11341019230769231        0        
C3        C        0.5625        0.314815        0.11341019230769231        0        
C4        C        0.59375        0.259259        0.11341019230769231        0        
C1        C        0.5625        0.351852        0.11341019230769231        0        
C2        C        0.59375        0.407408        0.11341019230769231        0        
C3        C        0.5625        0.42592500000000005        0.11341019230769231        0        
C4        C        0.59375        0.37037        0.11341019230769231        0        
C1        C        0.5625        0.46296300000000007        0.11341019230769231        0        
C2        C        0.59375        0.518519        0.11341019230769231        0        
C3        C        0.5625        0.537037        0.11341019230769231        0        
C4        C        0.59375        0.481481        0.11341019230769231        0        
C1        C        0.5625        0.574075        0.11341019230769231        0        
C2        C        0.59375        0.62963        0.11341019230769231        0        
C3        C        0.5625        0.648148        0.11341019230769231        0        
C4        C        0.59375        0.592592        0.11341019230769231        0        
C_FG        C        0.625        0.018519        0.11341019230769231        0.2        
C2        C        0.65625        0.074075        0.11341019230769231        0        
C3        C        0.625        0.092592        0.11341019230769231        0        
C4        C        0.65625        0.037037        0.11341019230769231        0        
C1        C        0.625        0.12963        0.11341019230769231        0        
C2        C        0.65625        0.185185        0.11341019230769231        0        
C_FG        C        0.625        0.203703        0.11341019230769231        0.2        
C4        C        0.65625        0.148148        0.11341019230769231        0        
C1        C        0.625        0.24074099999999998        0.11341019230769231        0        
C2        C        0.65625        0.296297        0.11341019230769231        0        
C3        C        0.625        0.314815        0.11341019230769231        0        
C4        C        0.65625        0.259259        0.11341019230769231        0        
C_FG        C        0.625        0.351852        0.11341019230769231        0.2        
C2        C        0.65625        0.407408        0.11341019230769231        0        
C3        C        0.625        0.42592500000000005        0.11341019230769231        0        
C4        C        0.65625        0.37037        0.11341019230769231        0        
C1        C        0.625        0.46296300000000007        0.11341019230769231        0        
C2        C        0.65625        0.518519        0.11341019230769231        0        
C_FG        C        0.625        0.537037        0.11341019230769231        0.2        
C4        C        0.65625        0.481481        0.11341019230769231        0        
C1        C        0.625        0.574075        0.11341019230769231        0        
C2        C        0.65625        0.62963        0.11341019230769231        0        
C3        C        0.625        0.648148        0.11341019230769231        0        
C4        C        0.65625        0.592592        0.11341019230769231        0        
C1        C        0.6875        0.018519        0.11341019230769231        0        
C2        C        0.71875        0.074075        0.11341019230769231        0        
C3        C        0.6875        0.092592        0.11341019230769231        0        
C4        C        0.71875        0.037037        0.11341019230769231        0        
C1        C        0.6875        0.12963        0.11341019230769231        0        
C2        C        0.71875        0.185185        0.11341019230769231        0        
C3        C        0.6875        0.203703        0.11341019230769231        0        
C4        C        0.71875        0.148148        0.11341019230769231        0        
C1        C        0.6875        0.24074099999999998        0.11341019230769231        0        
C2        C        0.71875        0.296297        0.11341019230769231        0        
C3        C        0.6875        0.314815        0.11341019230769231        0        
C4        C        0.71875        0.259259        0.11341019230769231        0        
C1        C        0.6875        0.351852        0.11341019230769231        0        
C2        C        0.71875        0.407408        0.11341019230769231        0        
C3        C        0.6875        0.42592500000000005        0.11341019230769231        0        
C4        C        0.71875        0.37037        0.11341019230769231        0        
C1        C        0.6875        0.46296300000000007        0.11341019230769231        0        
C2        C        0.71875        0.518519        0.11341019230769231        0        
C3        C        0.6875        0.537037        0.11341019230769231        0        
C4        C        0.71875        0.481481        0.11341019230769231        0        
C1        C        0.6875        0.574075        0.11341019230769231        0        
C2        C        0.71875        0.62963        0.11341019230769231        0        
C3        C        0.6875        0.648148        0.11341019230769231        0        
C4        C        0.71875        0.592592        0.11341019230769231        0        
C_FG        C        0.75        0.018519        0.11341019230769231        0.2        
C2        C        0.78125        0.074075        0.11341019230769231        0        
C3        C        0.75        0.092592        0.11341019230769231        0        
C4        C        0.78125        0.037037        0.11341019230769231        0        
C1        C        0.75        0.12963        0.11341019230769231        0        
C2        C        0.78125        0.185185        0.11341019230769231        0        
C_FG        C        0.75        0.203703        0.11341019230769231        0.2        
C4        C        0.78125        0.148148        0.11341019230769231        0        
C1        C        0.75        0.24074099999999998        0.11341019230769231        0        
C2        C        0.78125        0.296297        0.11341019230769231        0        
C3        C        0.75        0.314815        0.11341019230769231        0        
C4        C        0.78125        0.259259        0.11341019230769231        0        
C_FG        C        0.75        0.351852        0.11341019230769231        0.2        
C2        C        0.78125        0.407408        0.11341019230769231        0        
C3        C        0.75        0.42592500000000005        0.11341019230769231        0        
C4        C        0.78125        0.37037        0.11341019230769231        0        
C1        C        0.75        0.46296300000000007        0.11341019230769231        0        
C2        C        0.78125        0.518519        0.11341019230769231        0        
C_FG        C        0.75        0.537037        0.11341019230769231        0.2        
C4        C        0.78125        0.481481        0.11341019230769231        0        
C1        C        0.75        0.574075        0.11341019230769231        0        
C2        C        0.78125        0.62963        0.11341019230769231        0        
C3        C        0.75        0.648148        0.11341019230769231        0        
C4        C        0.78125        0.592592        0.11341019230769231        0        
C1        C        0.8125        0.018519        0.11341019230769231        0        
C2        C        0.84375        0.074075        0.11341019230769231        0        
C3        C        0.8125        0.092592        0.11341019230769231        0        
C4        C        0.84375        0.037037        0.11341019230769231        0        
C1        C        0.8125        0.12963        0.11341019230769231        0        
C2        C        0.84375        0.185185        0.11341019230769231        0        
C3        C        0.8125        0.203703        0.11341019230769231        0        
C4        C        0.84375        0.148148        0.11341019230769231        0        
C1        C        0.8125        0.24074099999999998        0.11341019230769231        0        
C2        C        0.84375        0.296297        0.11341019230769231        0        
C3        C        0.8125        0.314815        0.11341019230769231        0        
C4        C        0.84375        0.259259        0.11341019230769231        0        
C1        C        0.8125        0.351852        0.11341019230769231        0        
C2        C        0.84375        0.407408        0.11341019230769231        0        
C3        C        0.8125        0.42592500000000005        0.11341019230769231        0        
C4        C        0.84375        0.37037        0.11341019230769231        0        
C1        C        0.8125        0.46296300000000007        0.11341019230769231        0        
C2        C        0.84375        0.518519        0.11341019230769231        0        
C3        C        0.8125        0.537037        0.11341019230769231        0        
C4        C        0.84375        0.481481        0.11341019230769231        0        
C1        C        0.8125        0.574075        0.11341019230769231        0        
C2        C        0.84375        0.62963        0.11341019230769231        0        
C3        C        0.8125        0.648148        0.11341019230769231        0        
C4        C        0.84375        0.592592        0.11341019230769231        0        
C_FG        C        0.875        0.018519        0.11341019230769231        0.2        
C2        C        0.9062500000000001        0.074075        0.11341019230769231        0        
C3        C        0.875        0.092592        0.11341019230769231        0        
C4        C        0.9062500000000001        0.037037        0.11341019230769231        0        
C1        C        0.875        0.12963        0.11341019230769231        0        
C2        C        0.9062500000000001        0.185185        0.11341019230769231        0        
C_FG        C        0.875        0.203703        0.11341019230769231        0.2        
C4        C        0.9062500000000001        0.148148        0.11341019230769231        0        
C1        C        0.875        0.24074099999999998        0.11341019230769231        0        
C2        C        0.9062500000000001        0.296297        0.11341019230769231        0        
C3        C        0.875        0.314815        0.11341019230769231        0        
C4        C        0.9062500000000001        0.259259        0.11341019230769231        0        
C_FG        C        0.875        0.351852        0.11341019230769231        0.2        
C2        C        0.9062500000000001        0.407408        0.11341019230769231        0        
C3        C        0.875        0.42592500000000005        0.11341019230769231        0        
C4        C        0.9062500000000001        0.37037        0.11341019230769231        0        
C1        C        0.875        0.46296300000000007        0.11341019230769231        0        
C2        C        0.9062500000000001        0.518519        0.11341019230769231        0        
C_FG        C        0.875        0.537037        0.11341019230769231        0.2        
C4        C        0.9062500000000001        0.481481        0.11341019230769231        0        
C1        C        0.875        0.574075        0.11341019230769231        0        
C2        C        0.9062500000000001        0.62963        0.11341019230769231        0        
C3        C        0.875        0.648148        0.11341019230769231        0        
C4        C        0.9062500000000001        0.592592        0.11341019230769231        0        
C1        C        0.9375        0.018519        0.11341019230769231        0        
C2        C        0.9687500000000001        0.074075        0.11341019230769231        0        
C3        C        0.9375        0.092592        0.11341019230769231        0        
C4        C        0.9687500000000001        0.037037        0.11341019230769231        0        
C1        C        0.9375        0.12963        0.11341019230769231        0        
C2        C        0.9687500000000001        0.185185        0.11341019230769231        0        
C3        C        0.9375        0.203703        0.11341019230769231        0        
C4        C        0.9687500000000001        0.148148        0.11341019230769231        0        
C1        C        0.9375        0.24074099999999998        0.11341019230769231        0        
C2        C        0.9687500000000001        0.296297        0.11341019230769231        0        
C3        C        0.9375        0.314815        0.11341019230769231        0        
C4        C        0.9687500000000001        0.259259        0.11341019230769231        0        
C1        C        0.9375        0.351852        0.11341019230769231        0        
C2        C        0.9687500000000001        0.407408        0.11341019230769231        0        
C3        C        0.9375        0.42592500000000005        0.11341019230769231        0        
C4        C        0.9687500000000001        0.37037        0.11341019230769231        0        
C1        C        0.9375        0.46296300000000007        0.11341019230769231        0        
C2        C        0.9687500000000001        0.518519        0.11341019230769231        0        
C3        C        0.9375        0.537037        0.11341019230769231        0        
C4        C        0.9687500000000001        0.481481        0.11341019230769231        0        
C1        C        0.9375        0.574075        0.11341019230769231        0        
C2        C        0.9687500000000001        0.62963        0.11341019230769231        0        
C3        C        0.9375        0.648148        0.11341019230769231        0        
C4        C        0.9687500000000001        0.592592        0.11341019230769231        0        
C_FG        C        0.0        0.685186        0.11341019230769231        0.2        
C1        C        0.0625        0.685186        0.11341019230769231        0        
C_FG        C        0.125        0.685186        0.11341019230769231        0.2        
C1        C        0.1875        0.685186        0.11341019230769231        0        
C_FG        C        0.25        0.685186        0.11341019230769231        0.2        
C1        C        0.3125        0.685186        0.11341019230769231        0        
C_FG        C        0.375        0.685186        0.11341019230769231        0.2        
C1        C        0.4375        0.685186        0.11341019230769231        0        
C_FG        C        0.5        0.685186        0.11341019230769231        0.2        
C1        C        0.5625        0.685186        0.11341019230769231        0        
C_FG        C        0.625        0.685186        0.11341019230769231        0.2        
C1        C        0.6875        0.685186        0.11341019230769231        0        
C_FG        C        0.75        0.685186        0.11341019230769231        0.2        
C1        C        0.8125        0.685186        0.11341019230769231        0        
C_FG        C        0.875        0.685186        0.11341019230769231        0.2        
C1        C        0.9375        0.685186        0.11341019230769231        0        
C2        C        0.03125        0.740741        0.11341019230769231        0        
C2        C        0.09375        0.740741        0.11341019230769231        0        
C2        C        0.15625        0.740741        0.11341019230769231        0        
C2        C        0.21875        0.740741        0.11341019230769231        0        
C2        C        0.28125        0.740741        0.11341019230769231        0        
C2        C        0.34375        0.740741        0.11341019230769231        0        
C2        C        0.40625        0.740741        0.11341019230769231        0        
C2        C        0.46875        0.740741        0.11341019230769231        0        
C2        C        0.53125        0.740741        0.11341019230769231        0        
C2        C        0.59375        0.740741        0.11341019230769231        0        
C2        C        0.65625        0.740741        0.11341019230769231        0        
C2        C        0.71875        0.740741        0.11341019230769231        0        
C2        C        0.78125        0.740741        0.11341019230769231        0        
C2        C        0.84375        0.740741        0.11341019230769231        0        
C2        C        0.9062500000000001        0.740741        0.11341019230769231        0        
C2        C        0.9687500000000001        0.740741        0.11341019230769231        0        
C3        C        0.0        0.759259        0.11341019230769231        0        
C3        C        0.0625        0.759259        0.11341019230769231        0        
C3        C        0.125        0.759259        0.11341019230769231        0        
C3        C        0.1875        0.759259        0.11341019230769231        0        
C3        C        0.25        0.759259        0.11341019230769231        0        
C3        C        0.3125        0.759259        0.11341019230769231        0        
C3        C        0.375        0.759259        0.11341019230769231        0        
C3        C        0.4375        0.759259        0.11341019230769231        0        
C3        C        0.5        0.759259        0.11341019230769231        0        
C3        C        0.5625        0.759259        0.11341019230769231        0        
C3        C        0.625        0.759259        0.11341019230769231        0        
C3        C        0.6875        0.759259        0.11341019230769231        0        
C3        C        0.75        0.759259        0.11341019230769231        0        
C3        C        0.8125        0.759259        0.11341019230769231        0        
C3        C        0.875        0.759259        0.11341019230769231        0        
C3        C        0.9375        0.759259        0.11341019230769231        0        
C4        C        0.03125        0.703703        0.11341019230769231        0        
C4        C        0.09375        0.703703        0.11341019230769231        0        
C4        C        0.15625        0.703703        0.11341019230769231        0        
C4        C        0.21875        0.703703        0.11341019230769231        0        
C4        C        0.28125        0.703703        0.11341019230769231        0        
C4        C        0.34375        0.703703        0.11341019230769231        0        
C4        C        0.40625        0.703703        0.11341019230769231        0        
C4        C        0.46875        0.703703        0.11341019230769231        0        
C4        C        0.53125        0.703703        0.11341019230769231        0        
C4        C        0.59375        0.703703        0.11341019230769231        0        
C4        C        0.65625        0.703703        0.11341019230769231        0        
C4        C        0.71875        0.703703        0.11341019230769231        0        
C4        C        0.78125        0.703703        0.11341019230769231        0        
C4        C        0.84375        0.703703        0.11341019230769231        0        
C4        C        0.9062500000000001        0.703703        0.11341019230769231        0        
C4        C        0.9687500000000001        0.703703        0.11341019230769231        0        
C1        C        0.0        0.796297        0.11341019230769231        0        
C1        C        0.0625        0.796297        0.11341019230769231        0        
C1        C        0.125        0.796297        0.11341019230769231        0        
C1        C        0.1875        0.796297        0.11341019230769231        0        
C1        C        0.25        0.796297        0.11341019230769231        0        
C1        C        0.3125        0.796297        0.11341019230769231        0        
C1        C        0.375        0.796297        0.11341019230769231        0        
C1        C        0.4375        0.796297        0.11341019230769231        0        
C1        C        0.5        0.796297        0.11341019230769231        0        
C1        C        0.5625        0.796297        0.11341019230769231        0        
C1        C        0.625        0.796297        0.11341019230769231        0        
C1        C        0.6875        0.796297        0.11341019230769231        0        
C1        C        0.75        0.796297        0.11341019230769231        0        
C1        C        0.8125        0.796297        0.11341019230769231        0        
C1        C        0.875        0.796297        0.11341019230769231        0        
C1        C        0.9375        0.796297        0.11341019230769231        0        
C2        C        0.03125        0.851852        0.11341019230769231        0        
C2        C        0.09375        0.851852        0.11341019230769231        0        
C2        C        0.15625        0.851852        0.11341019230769231        0        
C2        C        0.21875        0.851852        0.11341019230769231        0        
C2        C        0.28125        0.851852        0.11341019230769231        0        
C2        C        0.34375        0.851852        0.11341019230769231        0        
C2        C        0.40625        0.851852        0.11341019230769231        0        
C2        C        0.46875        0.851852        0.11341019230769231        0        
C2        C        0.53125        0.851852        0.11341019230769231        0        
C2        C        0.59375        0.851852        0.11341019230769231        0        
C2        C        0.65625        0.851852        0.11341019230769231        0        
C2        C        0.71875        0.851852        0.11341019230769231        0        
C2        C        0.78125        0.851852        0.11341019230769231        0        
C2        C        0.84375        0.851852        0.11341019230769231        0        
C2        C        0.9062500000000001        0.851852        0.11341019230769231        0        
C2        C        0.9687500000000001        0.851852        0.11341019230769231        0        
C_FG        C        0.0        0.87037        0.11341019230769231        0.2        
C3        C        0.0625        0.87037        0.11341019230769231        0        
C_FG        C        0.125        0.87037        0.11341019230769231        0.2        
C3        C        0.1875        0.87037        0.11341019230769231        0        
C_FG        C        0.25        0.87037        0.11341019230769231        0.2        
C3        C        0.3125        0.87037        0.11341019230769231        0        
C_FG        C        0.375        0.87037        0.11341019230769231        0.2        
C3        C        0.4375        0.87037        0.11341019230769231        0        
C_FG        C        0.5        0.87037        0.11341019230769231        0.2        
C3        C        0.5625        0.87037        0.11341019230769231        0        
C_FG        C        0.625        0.87037        0.11341019230769231        0.2        
C3        C        0.6875        0.87037        0.11341019230769231        0        
C_FG        C        0.75        0.87037        0.11341019230769231        0.2        
C3        C        0.8125        0.87037        0.11341019230769231        0        
C_FG        C        0.875        0.87037        0.11341019230769231        0.2        
C3        C        0.9375        0.87037        0.11341019230769231        0        
C4        C        0.03125        0.814814        0.11341019230769231        0        
C4        C        0.09375        0.814814        0.11341019230769231        0        
C4        C        0.15625        0.814814        0.11341019230769231        0        
C4        C        0.21875        0.814814        0.11341019230769231        0        
C4        C        0.28125        0.814814        0.11341019230769231        0        
C4        C        0.34375        0.814814        0.11341019230769231        0        
C4        C        0.40625        0.814814        0.11341019230769231        0        
C4        C        0.46875        0.814814        0.11341019230769231        0        
C4        C        0.53125        0.814814        0.11341019230769231        0        
C4        C        0.59375        0.814814        0.11341019230769231        0        
C4        C        0.65625        0.814814        0.11341019230769231        0        
C4        C        0.71875        0.814814        0.11341019230769231        0        
C4        C        0.78125        0.814814        0.11341019230769231        0        
C4        C        0.84375        0.814814        0.11341019230769231        0        
C4        C        0.9062500000000001        0.814814        0.11341019230769231        0        
C4        C        0.9687500000000001        0.814814        0.11341019230769231        0        
C1        C        0.0        0.907408        0.11341019230769231        0        
C1        C        0.0625        0.907408        0.11341019230769231        0        
C1        C        0.125        0.907408        0.11341019230769231        0        
C1        C        0.1875        0.907408        0.11341019230769231        0        
C1        C        0.25        0.907408        0.11341019230769231        0        
C1        C        0.3125        0.907408        0.11341019230769231        0        
C1        C        0.375        0.907408        0.11341019230769231        0        
C1        C        0.4375        0.907408        0.11341019230769231        0        
C1        C        0.5        0.907408        0.11341019230769231        0        
C1        C        0.5625        0.907408        0.11341019230769231        0        
C1        C        0.625        0.907408        0.11341019230769231        0        
C1        C        0.6875        0.907408        0.11341019230769231        0        
C1        C        0.75        0.907408        0.11341019230769231        0        
C1        C        0.8125        0.907408        0.11341019230769231        0        
C1        C        0.875        0.907408        0.11341019230769231        0        
C1        C        0.9375        0.907408        0.11341019230769231        0        
C2        C        0.03125        0.962963        0.11341019230769231        0        
C2        C        0.09375        0.962963        0.11341019230769231        0        
C2        C        0.15625        0.962963        0.11341019230769231        0        
C2        C        0.21875        0.962963        0.11341019230769231        0        
C2        C        0.28125        0.962963        0.11341019230769231        0        
C2        C        0.34375        0.962963        0.11341019230769231        0        
C2        C        0.40625        0.962963        0.11341019230769231        0        
C2        C        0.46875        0.962963        0.11341019230769231        0        
C2        C        0.53125        0.962963        0.11341019230769231        0        
C2        C        0.59375        0.962963        0.11341019230769231        0        
C2        C        0.65625        0.962963        0.11341019230769231        0        
C2        C        0.71875        0.962963        0.11341019230769231        0        
C2        C        0.78125        0.962963        0.11341019230769231        0        
C2        C        0.84375        0.962963        0.11341019230769231        0        
C2        C        0.9062500000000001        0.962963        0.11341019230769231        0        
C2        C        0.9687500000000001        0.962963        0.11341019230769231        0        
C3        C        0.0        0.9814809999999999        0.11341019230769231        0        
C3        C        0.0625        0.9814809999999999        0.11341019230769231        0        
C3        C        0.125        0.9814809999999999        0.11341019230769231        0        
C3        C        0.1875        0.9814809999999999        0.11341019230769231        0        
C3        C        0.25        0.9814809999999999        0.11341019230769231        0        
C3        C        0.3125        0.9814809999999999        0.11341019230769231        0        
C3        C        0.375        0.9814809999999999        0.11341019230769231        0        
C3        C        0.4375        0.9814809999999999        0.11341019230769231        0        
C3        C        0.5        0.9814809999999999        0.11341019230769231        0        
C3        C        0.5625        0.9814809999999999        0.11341019230769231        0        
C3        C        0.625        0.9814809999999999        0.11341019230769231        0        
C3        C        0.6875        0.9814809999999999        0.11341019230769231        0        
C3        C        0.75        0.9814809999999999        0.11341019230769231        0        
C3        C        0.8125        0.9814809999999999        0.11341019230769231        0        
C3        C        0.875        0.9814809999999999        0.11341019230769231        0        
C3        C        0.9375        0.9814809999999999        0.11341019230769231        0        
C4        C        0.03125        0.925925        0.11341019230769231        0        
C4        C        0.09375        0.925925        0.11341019230769231        0        
C4        C        0.15625        0.925925        0.11341019230769231        0        
C4        C        0.21875        0.925925        0.11341019230769231        0        
C4        C        0.28125        0.925925        0.11341019230769231        0        
C4        C        0.34375        0.925925        0.11341019230769231        0        
C4        C        0.40625        0.925925        0.11341019230769231        0        
C4        C        0.46875        0.925925        0.11341019230769231        0        
C4        C        0.53125        0.925925        0.11341019230769231        0        
C4        C        0.59375        0.925925        0.11341019230769231        0        
C4        C        0.65625        0.925925        0.11341019230769231        0        
C4        C        0.71875        0.925925        0.11341019230769231        0        
C4        C        0.78125        0.925925        0.11341019230769231        0        
C4        C        0.84375        0.925925        0.11341019230769231        0        
C4        C        0.9062500000000001        0.925925        0.11341019230769231        0        
C4        C        0.9687500000000001        0.925925        0.11341019230769231        0        
C1        C        0.0        0.018519        0.3281541923076923        0        
C2        C        0.03125        0.074075        0.3281541923076923        0        
C3        C        0.0        0.092592        0.3281541923076923        0        
C4        C        0.03125        0.037037        0.3281541923076923        0        
C1        C        0.0        0.12963        0.3281541923076923        0        
C2        C        0.03125        0.185185        0.3281541923076923        0        
C3        C        0.0        0.203703        0.3281541923076923        0        
C4        C        0.03125        0.148148        0.3281541923076923        0        
C1        C        0.0        0.24074099999999998        0.3281541923076923        0        
C2        C        0.03125        0.296297        0.3281541923076923        0        
C3        C        0.0        0.314815        0.3281541923076923        0        
C4        C        0.03125        0.259259        0.3281541923076923        0        
C1        C        0.0        0.351852        0.3281541923076923        0        
C2        C        0.03125        0.407408        0.3281541923076923        0        
C3        C        0.0        0.42592500000000005        0.3281541923076923        0        
C4        C        0.03125        0.37037        0.3281541923076923        0        
C1        C        0.0        0.46296300000000007        0.3281541923076923        0        
C2        C        0.03125        0.518519        0.3281541923076923        0        
C3        C        0.0        0.537037        0.3281541923076923        0        
C4        C        0.03125        0.481481        0.3281541923076923        0        
C1        C        0.0        0.574075        0.3281541923076923        0        
C2        C        0.03125        0.62963        0.3281541923076923        0        
C3        C        0.0        0.648148        0.3281541923076923        0        
C4        C        0.03125        0.592592        0.3281541923076923        0        
C1        C        0.0625        0.018519        0.3281541923076923        0        
C2        C        0.09375        0.074075        0.3281541923076923        0        
C3        C        0.0625        0.092592        0.3281541923076923        0        
C4        C        0.09375        0.037037        0.3281541923076923        0        
C1        C        0.0625        0.12963        0.3281541923076923        0        
C2        C        0.09375        0.185185        0.3281541923076923        0        
C3        C        0.0625        0.203703        0.3281541923076923        0        
C4        C        0.09375        0.148148        0.3281541923076923        0        
C1        C        0.0625        0.24074099999999998        0.3281541923076923        0        
C2        C        0.09375        0.296297        0.3281541923076923        0        
C3        C        0.0625        0.314815        0.3281541923076923        0        
C4        C        0.09375        0.259259        0.3281541923076923        0        
C1        C        0.0625        0.351852        0.3281541923076923        0        
C2        C        0.09375        0.407408        0.3281541923076923        0        
C3        C        0.0625        0.42592500000000005        0.3281541923076923        0        
C4        C        0.09375        0.37037        0.3281541923076923        0        
C1        C        0.0625        0.46296300000000007        0.3281541923076923        0        
C2        C        0.09375        0.518519        0.3281541923076923        0        
C3        C        0.0625        0.537037        0.3281541923076923        0        
C4        C        0.09375        0.481481        0.3281541923076923        0        
C1        C        0.0625        0.574075        0.3281541923076923        0        
C2        C        0.09375        0.62963        0.3281541923076923        0        
C3        C        0.0625        0.648148        0.3281541923076923        0        
C4        C        0.09375        0.592592        0.3281541923076923        0        
C1        C        0.125        0.018519        0.3281541923076923        0        
C2        C        0.15625        0.074075        0.3281541923076923        0        
C3        C        0.125        0.092592        0.3281541923076923        0        
C4        C        0.15625        0.037037        0.3281541923076923        0        
C1        C        0.125        0.12963        0.3281541923076923        0        
C2        C        0.15625        0.185185        0.3281541923076923        0        
C3        C        0.125        0.203703        0.3281541923076923        0        
C4        C        0.15625        0.148148        0.3281541923076923        0        
C1        C        0.125        0.24074099999999998        0.3281541923076923        0        
C2        C        0.15625        0.296297        0.3281541923076923        0        
C3        C        0.125        0.314815        0.3281541923076923        0        
C4        C        0.15625        0.259259        0.3281541923076923        0        
C1        C        0.125        0.351852        0.3281541923076923        0        
C2        C        0.15625        0.407408        0.3281541923076923        0        
C3        C        0.125        0.42592500000000005        0.3281541923076923        0        
C4        C        0.15625        0.37037        0.3281541923076923        0        
C1        C        0.125        0.46296300000000007        0.3281541923076923        0        
C2        C        0.15625        0.518519        0.3281541923076923        0        
C3        C        0.125        0.537037        0.3281541923076923        0        
C4        C        0.15625        0.481481        0.3281541923076923        0        
C1        C        0.125        0.574075        0.3281541923076923        0        
C2        C        0.15625        0.62963        0.3281541923076923        0        
C3        C        0.125        0.648148        0.3281541923076923        0        
C4        C        0.15625        0.592592        0.3281541923076923        0        
C1        C        0.1875        0.018519        0.3281541923076923        0        
C2        C        0.21875        0.074075        0.3281541923076923        0        
C3        C        0.1875        0.092592        0.3281541923076923        0        
C4        C        0.21875        0.037037        0.3281541923076923        0        
C1        C        0.1875        0.12963        0.3281541923076923        0        
C2        C        0.21875        0.185185        0.3281541923076923        0        
C3        C        0.1875        0.203703        0.3281541923076923        0        
C4        C        0.21875        0.148148        0.3281541923076923        0        
C1        C        0.1875        0.24074099999999998        0.3281541923076923        0        
C2        C        0.21875        0.296297        0.3281541923076923        0        
C3        C        0.1875        0.314815        0.3281541923076923        0        
C4        C        0.21875        0.259259        0.3281541923076923        0        
C1        C        0.1875        0.351852        0.3281541923076923        0        
C2        C        0.21875        0.407408        0.3281541923076923        0        
C3        C        0.1875        0.42592500000000005        0.3281541923076923        0        
C4        C        0.21875        0.37037        0.3281541923076923        0        
C1        C        0.1875        0.46296300000000007        0.3281541923076923        0        
C2        C        0.21875        0.518519        0.3281541923076923        0        
C3        C        0.1875        0.537037        0.3281541923076923        0        
C4        C        0.21875        0.481481        0.3281541923076923        0        
C1        C        0.1875        0.574075        0.3281541923076923        0        
C2        C        0.21875        0.62963        0.3281541923076923        0        
C3        C        0.1875        0.648148        0.3281541923076923        0        
C4        C        0.21875        0.592592        0.3281541923076923        0        
C1        C        0.25        0.018519        0.3281541923076923        0        
C2        C        0.28125        0.074075        0.3281541923076923        0        
C3        C        0.25        0.092592        0.3281541923076923        0        
C4        C        0.28125        0.037037        0.3281541923076923        0        
C1        C        0.25        0.12963        0.3281541923076923        0        
C2        C        0.28125        0.185185        0.3281541923076923        0        
C3        C        0.25        0.203703        0.3281541923076923        0        
C4        C        0.28125        0.148148        0.3281541923076923        0        
C1        C        0.25        0.24074099999999998        0.3281541923076923        0        
C2        C        0.28125        0.296297        0.3281541923076923        0        
C3        C        0.25        0.314815        0.3281541923076923        0        
C4        C        0.28125        0.259259        0.3281541923076923        0        
C1        C        0.25        0.351852        0.3281541923076923        0        
C2        C        0.28125        0.407408        0.3281541923076923        0        
C3        C        0.25        0.42592500000000005        0.3281541923076923        0        
C4        C        0.28125        0.37037        0.3281541923076923        0        
C1        C        0.25        0.46296300000000007        0.3281541923076923        0        
C2        C        0.28125        0.518519        0.3281541923076923        0        
C3        C        0.25        0.537037        0.3281541923076923        0        
C4        C        0.28125        0.481481        0.3281541923076923        0        
C1        C        0.25        0.574075        0.3281541923076923        0        
C2        C        0.28125        0.62963        0.3281541923076923        0        
C3        C        0.25        0.648148        0.3281541923076923        0        
C4        C        0.28125        0.592592        0.3281541923076923        0        
C1        C        0.3125        0.018519        0.3281541923076923        0        
C2        C        0.34375        0.074075        0.3281541923076923        0        
C3        C        0.3125        0.092592        0.3281541923076923        0        
C4        C        0.34375        0.037037        0.3281541923076923        0        
C1        C        0.3125        0.12963        0.3281541923076923        0        
C2        C        0.34375        0.185185        0.3281541923076923        0        
C3        C        0.3125        0.203703        0.3281541923076923        0        
C4        C        0.34375        0.148148        0.3281541923076923        0        
C1        C        0.3125        0.24074099999999998        0.3281541923076923        0        
C2        C        0.34375        0.296297        0.3281541923076923        0        
C3        C        0.3125        0.314815        0.3281541923076923        0        
C4        C        0.34375        0.259259        0.3281541923076923        0        
C1        C        0.3125        0.351852        0.3281541923076923        0        
C2        C        0.34375        0.407408        0.3281541923076923        0        
C3        C        0.3125        0.42592500000000005        0.3281541923076923        0        
C4        C        0.34375        0.37037        0.3281541923076923        0        
C1        C        0.3125        0.46296300000000007        0.3281541923076923        0        
C2        C        0.34375        0.518519        0.3281541923076923        0        
C3        C        0.3125        0.537037        0.3281541923076923        0        
C4        C        0.34375        0.481481        0.3281541923076923        0        
C1        C        0.3125        0.574075        0.3281541923076923        0        
C2        C        0.34375        0.62963        0.3281541923076923        0        
C3        C        0.3125        0.648148        0.3281541923076923        0        
C4        C        0.34375        0.592592        0.3281541923076923        0        
C1        C        0.375        0.018519        0.3281541923076923        0        
C2        C        0.40625        0.074075        0.3281541923076923        0        
C3        C        0.375        0.092592        0.3281541923076923        0        
C4        C        0.40625        0.037037        0.3281541923076923        0        
C1        C        0.375        0.12963        0.3281541923076923        0        
C2        C        0.40625        0.185185        0.3281541923076923        0        
C3        C        0.375        0.203703        0.3281541923076923        0        
C4        C        0.40625        0.148148        0.3281541923076923        0        
C1        C        0.375        0.24074099999999998        0.3281541923076923        0        
C2        C        0.40625        0.296297        0.3281541923076923        0        
C3        C        0.375        0.314815        0.3281541923076923        0        
C4        C        0.40625        0.259259        0.3281541923076923        0        
C1        C        0.375        0.351852        0.3281541923076923        0        
C2        C        0.40625        0.407408        0.3281541923076923        0        
C3        C        0.375        0.42592500000000005        0.3281541923076923        0        
C4        C        0.40625        0.37037        0.3281541923076923        0        
C1        C        0.375        0.46296300000000007        0.3281541923076923        0        
C2        C        0.40625        0.518519        0.3281541923076923        0        
C3        C        0.375        0.537037        0.3281541923076923        0        
C4        C        0.40625        0.481481        0.3281541923076923        0        
C1        C        0.375        0.574075        0.3281541923076923        0        
C2        C        0.40625        0.62963        0.3281541923076923        0        
C3        C        0.375        0.648148        0.3281541923076923        0        
C4        C        0.40625        0.592592        0.3281541923076923        0        
C1        C        0.4375        0.018519        0.3281541923076923        0        
C2        C        0.46875        0.074075        0.3281541923076923        0        
C3        C        0.4375        0.092592        0.3281541923076923        0        
C4        C        0.46875        0.037037        0.3281541923076923        0        
C1        C        0.4375        0.12963        0.3281541923076923        0        
C2        C        0.46875        0.185185        0.3281541923076923        0        
C3        C        0.4375        0.203703        0.3281541923076923        0        
C4        C        0.46875        0.148148        0.3281541923076923        0        
C1        C        0.4375        0.24074099999999998        0.3281541923076923        0        
C2        C        0.46875        0.296297        0.3281541923076923        0        
C3        C        0.4375        0.314815        0.3281541923076923        0        
C4        C        0.46875        0.259259        0.3281541923076923        0        
C1        C        0.4375        0.351852        0.3281541923076923        0        
C2        C        0.46875        0.407408        0.3281541923076923        0        
C3        C        0.4375        0.42592500000000005        0.3281541923076923        0        
C4        C        0.46875        0.37037        0.3281541923076923        0        
C1        C        0.4375        0.46296300000000007        0.3281541923076923        0        
C2        C        0.46875        0.518519        0.3281541923076923        0        
C3        C        0.4375        0.537037        0.3281541923076923        0        
C4        C        0.46875        0.481481        0.3281541923076923        0        
C1        C        0.4375        0.574075        0.3281541923076923        0        
C2        C        0.46875        0.62963        0.3281541923076923        0        
C3        C        0.4375        0.648148        0.3281541923076923        0        
C4        C        0.46875        0.592592        0.3281541923076923        0        
C1        C        0.5        0.018519        0.3281541923076923        0        
C2        C        0.53125        0.074075        0.3281541923076923        0        
C3        C        0.5        0.092592        0.3281541923076923        0        
C4        C        0.53125        0.037037        0.3281541923076923        0        
C1        C        0.5        0.12963        0.3281541923076923        0        
C2        C        0.53125        0.185185        0.3281541923076923        0        
C3        C        0.5        0.203703        0.3281541923076923        0        
C4        C        0.53125        0.148148        0.3281541923076923        0        
C1        C        0.5        0.24074099999999998        0.3281541923076923        0        
C2        C        0.53125        0.296297        0.3281541923076923        0        
C3        C        0.5        0.314815        0.3281541923076923        0        
C4        C        0.53125        0.259259        0.3281541923076923        0        
C1        C        0.5        0.351852        0.3281541923076923        0        
C2        C        0.53125        0.407408        0.3281541923076923        0        
C3        C        0.5        0.42592500000000005        0.3281541923076923        0        
C4        C        0.53125        0.37037        0.3281541923076923        0        
C1        C        0.5        0.46296300000000007        0.3281541923076923        0        
C2        C        0.53125        0.518519        0.3281541923076923        0        
C3        C        0.5        0.537037        0.3281541923076923        0        
C4        C        0.53125        0.481481        0.3281541923076923        0        
C1        C        0.5        0.574075        0.3281541923076923        0        
C2        C        0.53125        0.62963        0.3281541923076923        0        
C3        C        0.5        0.648148        0.3281541923076923        0        
C4        C        0.53125        0.592592        0.3281541923076923        0        
C1        C        0.5625        0.018519        0.3281541923076923        0        
C2        C        0.59375        0.074075        0.3281541923076923        0        
C3        C        0.5625        0.092592        0.3281541923076923        0        
C4        C        0.59375        0.037037        0.3281541923076923        0        
C1        C        0.5625        0.12963        0.3281541923076923        0        
C2        C        0.59375        0.185185        0.3281541923076923        0        
C3        C        0.5625        0.203703        0.3281541923076923        0        
C4        C        0.59375        0.148148        0.3281541923076923        0        
C1        C        0.5625        0.24074099999999998        0.3281541923076923        0        
C2        C        0.59375        0.296297        0.3281541923076923        0        
C3        C        0.5625        0.314815        0.3281541923076923        0        
C4        C        0.59375        0.259259        0.3281541923076923        0        
C1        C        0.5625        0.351852        0.3281541923076923        0        
C2        C        0.59375        0.407408        0.3281541923076923        0        
C3        C        0.5625        0.42592500000000005        0.3281541923076923        0        
C4        C        0.59375        0.37037        0.3281541923076923        0        
C1        C        0.5625        0.46296300000000007        0.3281541923076923        0        
C2        C        0.59375        0.518519        0.3281541923076923        0        
C3        C        0.5625        0.537037        0.3281541923076923        0        
C4        C        0.59375        0.481481        0.3281541923076923        0        
C1        C        0.5625        0.574075        0.3281541923076923        0        
C2        C        0.59375        0.62963        0.3281541923076923        0        
C3        C        0.5625        0.648148        0.3281541923076923        0        
C4        C        0.59375        0.592592        0.3281541923076923        0        
C1        C        0.625        0.018519        0.3281541923076923        0        
C2        C        0.65625        0.074075        0.3281541923076923        0        
C3        C        0.625        0.092592        0.3281541923076923        0        
C4        C        0.65625        0.037037        0.3281541923076923        0        
C1        C        0.625        0.12963        0.3281541923076923        0        
C2        C        0.65625        0.185185        0.3281541923076923        0        
C3        C        0.625        0.203703        0.3281541923076923        0        
C4        C        0.65625        0.148148        0.3281541923076923        0        
C1        C        0.625        0.24074099999999998        0.3281541923076923        0        
C2        C        0.65625        0.296297        0.3281541923076923        0        
C3        C        0.625        0.314815        0.3281541923076923        0        
C4        C        0.65625        0.259259        0.3281541923076923        0        
C1        C        0.625        0.351852        0.3281541923076923        0        
C2        C        0.65625        0.407408        0.3281541923076923        0        
C3        C        0.625        0.42592500000000005        0.3281541923076923        0        
C4        C        0.65625        0.37037        0.3281541923076923        0        
C1        C        0.625        0.46296300000000007        0.3281541923076923        0        
C2        C        0.65625        0.518519        0.3281541923076923        0        
C3        C        0.625        0.537037        0.3281541923076923        0        
C4        C        0.65625        0.481481        0.3281541923076923        0        
C1        C        0.625        0.574075        0.3281541923076923        0        
C2        C        0.65625        0.62963        0.3281541923076923        0        
C3        C        0.625        0.648148        0.3281541923076923        0        
C4        C        0.65625        0.592592        0.3281541923076923        0        
C1        C        0.6875        0.018519        0.3281541923076923        0        
C2        C        0.71875        0.074075        0.3281541923076923        0        
C3        C        0.6875        0.092592        0.3281541923076923        0        
C4        C        0.71875        0.037037        0.3281541923076923        0        
C1        C        0.6875        0.12963        0.3281541923076923        0        
C2        C        0.71875        0.185185        0.3281541923076923        0        
C3        C        0.6875        0.203703        0.3281541923076923        0        
C4        C        0.71875        0.148148        0.3281541923076923        0        
C1        C        0.6875        0.24074099999999998        0.3281541923076923        0        
C2        C        0.71875        0.296297        0.3281541923076923        0        
C3        C        0.6875        0.314815        0.3281541923076923        0        
C4        C        0.71875        0.259259        0.3281541923076923        0        
C1        C        0.6875        0.351852        0.3281541923076923        0        
C2        C        0.71875        0.407408        0.3281541923076923        0        
C3        C        0.6875        0.42592500000000005        0.3281541923076923        0        
C4        C        0.71875        0.37037        0.3281541923076923        0        
C1        C        0.6875        0.46296300000000007        0.3281541923076923        0        
C2        C        0.71875        0.518519        0.3281541923076923        0        
C3        C        0.6875        0.537037        0.3281541923076923        0        
C4        C        0.71875        0.481481        0.3281541923076923        0        
C1        C        0.6875        0.574075        0.3281541923076923        0        
C2        C        0.71875        0.62963        0.3281541923076923        0        
C3        C        0.6875        0.648148        0.3281541923076923        0        
C4        C        0.71875        0.592592        0.3281541923076923        0        
C1        C        0.75        0.018519        0.3281541923076923        0        
C2        C        0.78125        0.074075        0.3281541923076923        0        
C3        C        0.75        0.092592        0.3281541923076923        0        
C4        C        0.78125        0.037037        0.3281541923076923        0        
C1        C        0.75        0.12963        0.3281541923076923        0        
C2        C        0.78125        0.185185        0.3281541923076923        0        
C3        C        0.75        0.203703        0.3281541923076923        0        
C4        C        0.78125        0.148148        0.3281541923076923        0        
C1        C        0.75        0.24074099999999998        0.3281541923076923        0        
C2        C        0.78125        0.296297        0.3281541923076923        0        
C3        C        0.75        0.314815        0.3281541923076923        0        
C4        C        0.78125        0.259259        0.3281541923076923        0        
C1        C        0.75        0.351852        0.3281541923076923        0        
C2        C        0.78125        0.407408        0.3281541923076923        0        
C3        C        0.75        0.42592500000000005        0.3281541923076923        0        
C4        C        0.78125        0.37037        0.3281541923076923        0        
C1        C        0.75        0.46296300000000007        0.3281541923076923        0        
C2        C        0.78125        0.518519        0.3281541923076923        0        
C3        C        0.75        0.537037        0.3281541923076923        0        
C4        C        0.78125        0.481481        0.3281541923076923        0        
C1        C        0.75        0.574075        0.3281541923076923        0        
C2        C        0.78125        0.62963        0.3281541923076923        0        
C3        C        0.75        0.648148        0.3281541923076923        0        
C4        C        0.78125        0.592592        0.3281541923076923        0        
C1        C        0.8125        0.018519        0.3281541923076923        0        
C2        C        0.84375        0.074075        0.3281541923076923        0        
C3        C        0.8125        0.092592        0.3281541923076923        0        
C4        C        0.84375        0.037037        0.3281541923076923        0        
C1        C        0.8125        0.12963        0.3281541923076923        0        
C2        C        0.84375        0.185185        0.3281541923076923        0        
C3        C        0.8125        0.203703        0.3281541923076923        0        
C4        C        0.84375        0.148148        0.3281541923076923        0        
C1        C        0.8125        0.24074099999999998        0.3281541923076923        0        
C2        C        0.84375        0.296297        0.3281541923076923        0        
C3        C        0.8125        0.314815        0.3281541923076923        0        
C4        C        0.84375        0.259259        0.3281541923076923        0        
C1        C        0.8125        0.351852        0.3281541923076923        0        
C2        C        0.84375        0.407408        0.3281541923076923        0        
C3        C        0.8125        0.42592500000000005        0.3281541923076923        0        
C4        C        0.84375        0.37037        0.3281541923076923        0        
C1        C        0.8125        0.46296300000000007        0.3281541923076923        0        
C2        C        0.84375        0.518519        0.3281541923076923        0        
C3        C        0.8125        0.537037        0.3281541923076923        0        
C4        C        0.84375        0.481481        0.3281541923076923        0        
C1        C        0.8125        0.574075        0.3281541923076923        0        
C2        C        0.84375        0.62963        0.3281541923076923        0        
C3        C        0.8125        0.648148        0.3281541923076923        0        
C4        C        0.84375        0.592592        0.3281541923076923        0        
C1        C        0.875        0.018519        0.3281541923076923        0        
C2        C        0.9062500000000001        0.074075        0.3281541923076923        0        
C3        C        0.875        0.092592        0.3281541923076923        0        
C4        C        0.9062500000000001        0.037037        0.3281541923076923        0        
C1        C        0.875        0.12963        0.3281541923076923        0        
C2        C        0.9062500000000001        0.185185        0.3281541923076923        0        
C3        C        0.875        0.203703        0.3281541923076923        0        
C4        C        0.9062500000000001        0.148148        0.3281541923076923        0        
C1        C        0.875        0.24074099999999998        0.3281541923076923        0        
C2        C        0.9062500000000001        0.296297        0.3281541923076923        0        
C3        C        0.875        0.314815        0.3281541923076923        0        
C4        C        0.9062500000000001        0.259259        0.3281541923076923        0        
C1        C        0.875        0.351852        0.3281541923076923        0        
C2        C        0.9062500000000001        0.407408        0.3281541923076923        0        
C3        C        0.875        0.42592500000000005        0.3281541923076923        0        
C4        C        0.9062500000000001        0.37037        0.3281541923076923        0        
C1        C        0.875        0.46296300000000007        0.3281541923076923        0        
C2        C        0.9062500000000001        0.518519        0.3281541923076923        0        
C3        C        0.875        0.537037        0.3281541923076923        0        
C4        C        0.9062500000000001        0.481481        0.3281541923076923        0        
C1        C        0.875        0.574075        0.3281541923076923        0        
C2        C        0.9062500000000001        0.62963        0.3281541923076923        0        
C3        C        0.875        0.648148        0.3281541923076923        0        
C4        C        0.9062500000000001        0.592592        0.3281541923076923        0        
C1        C        0.9375        0.018519        0.3281541923076923        0        
C2        C        0.9687500000000001        0.074075        0.3281541923076923        0        
C3        C        0.9375        0.092592        0.3281541923076923        0        
C4        C        0.9687500000000001        0.037037        0.3281541923076923        0        
C1        C        0.9375        0.12963        0.3281541923076923        0        
C2        C        0.9687500000000001        0.185185        0.3281541923076923        0        
C3        C        0.9375        0.203703        0.3281541923076923        0        
C4        C        0.9687500000000001        0.148148        0.3281541923076923        0        
C1        C        0.9375        0.24074099999999998        0.3281541923076923        0        
C2        C        0.9687500000000001        0.296297        0.3281541923076923        0        
C3        C        0.9375        0.314815        0.3281541923076923        0        
C4        C        0.9687500000000001        0.259259        0.3281541923076923        0        
C1        C        0.9375        0.351852        0.3281541923076923        0        
C2        C        0.9687500000000001        0.407408        0.3281541923076923        0        
C3        C        0.9375        0.42592500000000005        0.3281541923076923        0        
C4        C        0.9687500000000001        0.37037        0.3281541923076923        0        
C1        C        0.9375        0.46296300000000007        0.3281541923076923        0        
C2        C        0.9687500000000001        0.518519        0.3281541923076923        0        
C3        C        0.9375        0.537037        0.3281541923076923        0        
C4        C        0.9687500000000001        0.481481        0.3281541923076923        0        
C1        C        0.9375        0.574075        0.3281541923076923        0        
C2        C        0.9687500000000001        0.62963        0.3281541923076923        0        
C3        C        0.9375        0.648148        0.3281541923076923        0        
C4        C        0.9687500000000001        0.592592        0.3281541923076923        0        
C1        C        0.0        0.685186        0.3281541923076923        0        
C1        C        0.0625        0.685186        0.3281541923076923        0        
C1        C        0.125        0.685186        0.3281541923076923        0        
C1        C        0.1875        0.685186        0.3281541923076923        0        
C1        C        0.25        0.685186        0.3281541923076923        0        
C1        C        0.3125        0.685186        0.3281541923076923        0        
C1        C        0.375        0.685186        0.3281541923076923        0        
C1        C        0.4375        0.685186        0.3281541923076923        0        
C1        C        0.5        0.685186        0.3281541923076923        0        
C1        C        0.5625        0.685186        0.3281541923076923        0        
C1        C        0.625        0.685186        0.3281541923076923        0        
C1        C        0.6875        0.685186        0.3281541923076923        0        
C1        C        0.75        0.685186        0.3281541923076923        0        
C1        C        0.8125        0.685186        0.3281541923076923        0        
C1        C        0.875        0.685186        0.3281541923076923        0        
C1        C        0.9375        0.685186        0.3281541923076923        0        
C2        C        0.03125        0.740741        0.3281541923076923        0        
C2        C        0.09375        0.740741        0.3281541923076923        0        
C2        C        0.15625        0.740741        0.3281541923076923        0        
C2        C        0.21875        0.740741        0.3281541923076923        0        
C2        C        0.28125        0.740741        0.3281541923076923        0        
C2        C        0.34375        0.740741        0.3281541923076923        0        
C2        C        0.40625        0.740741        0.3281541923076923        0        
C2        C        0.46875        0.740741        0.3281541923076923        0        
C2        C        0.53125        0.740741        0.3281541923076923        0        
C2        C        0.59375        0.740741        0.3281541923076923        0        
C2        C        0.65625        0.740741        0.3281541923076923        0        
C2        C        0.71875        0.740741        0.3281541923076923        0        
C2        C        0.78125        0.740741        0.3281541923076923        0        
C2        C        0.84375        0.740741        0.3281541923076923        0        
C2        C        0.9062500000000001        0.740741        0.3281541923076923        0        
C2        C        0.9687500000000001        0.740741        0.3281541923076923        0        
C3        C        0.0        0.759259        0.3281541923076923        0        
C3        C        0.0625        0.759259        0.3281541923076923        0        
C3        C        0.125        0.759259        0.3281541923076923        0        
C3        C        0.1875        0.759259        0.3281541923076923        0        
C3        C        0.25        0.759259        0.3281541923076923        0        
C3        C        0.3125        0.759259        0.3281541923076923        0        
C3        C        0.375        0.759259        0.3281541923076923        0        
C3        C        0.4375        0.759259        0.3281541923076923        0        
C3        C        0.5        0.759259        0.3281541923076923        0        
C3        C        0.5625        0.759259        0.3281541923076923        0        
C3        C        0.625        0.759259        0.3281541923076923        0        
C3        C        0.6875        0.759259        0.3281541923076923        0        
C3        C        0.75        0.759259        0.3281541923076923        0        
C3        C        0.8125        0.759259        0.3281541923076923        0        
C3        C        0.875        0.759259        0.3281541923076923        0        
C3        C        0.9375        0.759259        0.3281541923076923        0        
C4        C        0.03125        0.703703        0.3281541923076923        0        
C4        C        0.09375        0.703703        0.3281541923076923        0        
C4        C        0.15625        0.703703        0.3281541923076923        0        
C4        C        0.21875        0.703703        0.3281541923076923        0        
C4        C        0.28125        0.703703        0.3281541923076923        0        
C4        C        0.34375        0.703703        0.3281541923076923        0        
C4        C        0.40625        0.703703        0.3281541923076923        0        
C4        C        0.46875        0.703703        0.3281541923076923        0        
C4        C        0.53125        0.703703        0.3281541923076923        0        
C4        C        0.59375        0.703703        0.3281541923076923        0        
C4        C        0.65625        0.703703        0.3281541923076923        0        
C4        C        0.71875        0.703703        0.3281541923076923        0        
C4        C        0.78125        0.703703        0.3281541923076923        0        
C4        C        0.84375        0.703703        0.3281541923076923        0        
C4        C        0.9062500000000001        0.703703        0.3281541923076923        0        
C4        C        0.9687500000000001        0.703703        0.3281541923076923        0        
C1        C        0.0        0.796297        0.3281541923076923        0        
C1        C        0.0625        0.796297        0.3281541923076923        0        
C1        C        0.125        0.796297        0.3281541923076923        0        
C1        C        0.1875        0.796297        0.3281541923076923        0        
C1        C        0.25        0.796297        0.3281541923076923        0        
C1        C        0.3125        0.796297        0.3281541923076923        0        
C1        C        0.375        0.796297        0.3281541923076923        0        
C1        C        0.4375        0.796297        0.3281541923076923        0        
C1        C        0.5        0.796297        0.3281541923076923        0        
C1        C        0.5625        0.796297        0.3281541923076923        0        
C1        C        0.625        0.796297        0.3281541923076923        0        
C1        C        0.6875        0.796297        0.3281541923076923        0        
C1        C        0.75        0.796297        0.3281541923076923        0        
C1        C        0.8125        0.796297        0.3281541923076923        0        
C1        C        0.875        0.796297        0.3281541923076923        0        
C1        C        0.9375        0.796297        0.3281541923076923        0        
C2        C        0.03125        0.851852        0.3281541923076923        0        
C2        C        0.09375        0.851852        0.3281541923076923        0        
C2        C        0.15625        0.851852        0.3281541923076923        0        
C2        C        0.21875        0.851852        0.3281541923076923        0        
C2        C        0.28125        0.851852        0.3281541923076923        0        
C2        C        0.34375        0.851852        0.3281541923076923        0        
C2        C        0.40625        0.851852        0.3281541923076923        0        
C2        C        0.46875        0.851852        0.3281541923076923        0        
C2        C        0.53125        0.851852        0.3281541923076923        0        
C2        C        0.59375        0.851852        0.3281541923076923        0        
C2        C        0.65625        0.851852        0.3281541923076923        0        
C2        C        0.71875        0.851852        0.3281541923076923        0        
C2        C        0.78125        0.851852        0.3281541923076923        0        
C2        C        0.84375        0.851852        0.3281541923076923        0        
C2        C        0.9062500000000001        0.851852        0.3281541923076923        0        
C2        C        0.9687500000000001        0.851852        0.3281541923076923        0        
C3        C        0.0        0.87037        0.3281541923076923        0        
C3        C        0.0625        0.87037        0.3281541923076923        0        
C3        C        0.125        0.87037        0.3281541923076923        0        
C3        C        0.1875        0.87037        0.3281541923076923        0        
C3        C        0.25        0.87037        0.3281541923076923        0        
C3        C        0.3125        0.87037        0.3281541923076923        0        
C3        C        0.375        0.87037        0.3281541923076923        0        
C3        C        0.4375        0.87037        0.3281541923076923        0        
C3        C        0.5        0.87037        0.3281541923076923        0        
C3        C        0.5625        0.87037        0.3281541923076923        0        
C3        C        0.625        0.87037        0.3281541923076923        0        
C3        C        0.6875        0.87037        0.3281541923076923        0        
C3        C        0.75        0.87037        0.3281541923076923        0        
C3        C        0.8125        0.87037        0.3281541923076923        0        
C3        C        0.875        0.87037        0.3281541923076923        0        
C3        C        0.9375        0.87037        0.3281541923076923        0        
C4        C        0.03125        0.814814        0.3281541923076923        0        
C4        C        0.09375        0.814814        0.3281541923076923        0        
C4        C        0.15625        0.814814        0.3281541923076923        0        
C4        C        0.21875        0.814814        0.3281541923076923        0        
C4        C        0.28125        0.814814        0.3281541923076923        0        
C4        C        0.34375        0.814814        0.3281541923076923        0        
C4        C        0.40625        0.814814        0.3281541923076923        0        
C4        C        0.46875        0.814814        0.3281541923076923        0        
C4        C        0.53125        0.814814        0.3281541923076923        0        
C4        C        0.59375        0.814814        0.3281541923076923        0        
C4        C        0.65625        0.814814        0.3281541923076923        0        
C4        C        0.71875        0.814814        0.3281541923076923        0        
C4        C        0.78125        0.814814        0.3281541923076923        0        
C4        C        0.84375        0.814814        0.3281541923076923        0        
C4        C        0.9062500000000001        0.814814        0.3281541923076923        0        
C4        C        0.9687500000000001        0.814814        0.3281541923076923        0        
C1        C        0.0        0.907408        0.3281541923076923        0        
C1        C        0.0625        0.907408        0.3281541923076923        0        
C1        C        0.125        0.907408        0.3281541923076923        0        
C1        C        0.1875        0.907408        0.3281541923076923        0        
C1        C        0.25        0.907408        0.3281541923076923        0        
C1        C        0.3125        0.907408        0.3281541923076923        0        
C1        C        0.375        0.907408        0.3281541923076923        0        
C1        C        0.4375        0.907408        0.3281541923076923        0        
C1        C        0.5        0.907408        0.3281541923076923        0        
C1        C        0.5625        0.907408        0.3281541923076923        0        
C1        C        0.625        0.907408        0.3281541923076923        0        
C1        C        0.6875        0.907408        0.3281541923076923        0        
C1        C        0.75        0.907408        0.3281541923076923        0        
C1        C        0.8125        0.907408        0.3281541923076923        0        
C1        C        0.875        0.907408        0.3281541923076923        0        
C1        C        0.9375        0.907408        0.3281541923076923        0        
C2        C        0.03125        0.962963        0.3281541923076923        0        
C2        C        0.09375        0.962963        0.3281541923076923        0        
C2        C        0.15625        0.962963        0.3281541923076923        0        
C2        C        0.21875        0.962963        0.3281541923076923        0        
C2        C        0.28125        0.962963        0.3281541923076923        0        
C2        C        0.34375        0.962963        0.3281541923076923        0        
C2        C        0.40625        0.962963        0.3281541923076923        0        
C2        C        0.46875        0.962963        0.3281541923076923        0        
C2        C        0.53125        0.962963        0.3281541923076923        0        
C2        C        0.59375        0.962963        0.3281541923076923        0        
C2        C        0.65625        0.962963        0.3281541923076923        0        
C2        C        0.71875        0.962963        0.3281541923076923        0        
C2        C        0.78125        0.962963        0.3281541923076923        0        
C2        C        0.84375        0.962963        0.3281541923076923        0        
C2        C        0.9062500000000001        0.962963        0.3281541923076923        0        
C2        C        0.9687500000000001        0.962963        0.3281541923076923        0        
C3        C        0.0        0.9814809999999999        0.3281541923076923        0        
C3        C        0.0625        0.9814809999999999        0.3281541923076923        0        
C3        C        0.125        0.9814809999999999        0.3281541923076923        0        
C3        C        0.1875        0.9814809999999999        0.3281541923076923        0        
C3        C        0.25        0.9814809999999999        0.3281541923076923        0        
C3        C        0.3125        0.9814809999999999        0.3281541923076923        0        
C3        C        0.375        0.9814809999999999        0.3281541923076923        0        
C3        C        0.4375        0.9814809999999999        0.3281541923076923        0        
C3        C        0.5        0.9814809999999999        0.3281541923076923        0        
C3        C        0.5625        0.9814809999999999        0.3281541923076923        0        
C3        C        0.625        0.9814809999999999        0.3281541923076923        0        
C3        C        0.6875        0.9814809999999999        0.3281541923076923        0        
C3        C        0.75        0.9814809999999999        0.3281541923076923        0        
C3        C        0.8125        0.9814809999999999        0.3281541923076923        0        
C3        C        0.875        0.9814809999999999        0.3281541923076923        0        
C3        C        0.9375        0.9814809999999999        0.3281541923076923        0        
C4        C        0.03125        0.925925        0.3281541923076923        0        
C4        C        0.09375        0.925925        0.3281541923076923        0        
C4        C        0.15625        0.925925        0.3281541923076923        0        
C4        C        0.21875        0.925925        0.3281541923076923        0        
C4        C        0.28125        0.925925        0.3281541923076923        0        
C4        C        0.34375        0.925925        0.3281541923076923        0        
C4        C        0.40625        0.925925        0.3281541923076923        0        
C4        C        0.46875        0.925925        0.3281541923076923        0        
C4        C        0.53125        0.925925        0.3281541923076923        0        
C4        C        0.59375        0.925925        0.3281541923076923        0        
C4        C        0.65625        0.925925        0.3281541923076923        0        
C4        C        0.71875        0.925925        0.3281541923076923        0        
C4        C        0.78125        0.925925        0.3281541923076923        0        
C4        C        0.84375        0.925925        0.3281541923076923        0        
C4        C        0.9062500000000001        0.925925        0.3281541923076923        0        
C4        C        0.9687500000000001        0.925925        0.3281541923076923        0        
C_FG        C        0.0        0.018519        0.5428971923076924        0.2        
C2        C        0.03125        0.074075        0.5428971923076924        0        
C3        C        0.0        0.092592        0.5428971923076924        0        
C4        C        0.03125        0.037037        0.5428971923076924        0        
C1        C        0.0        0.12963        0.5428971923076924        0        
C2        C        0.03125        0.185185        0.5428971923076924        0        
C_FG        C        0.0        0.203703        0.5428971923076924        0.2        
C4        C        0.03125        0.148148        0.5428971923076924        0        
C1        C        0.0        0.24074099999999998        0.5428971923076924        0        
C2        C        0.03125        0.296297        0.5428971923076924        0        
C3        C        0.0        0.314815        0.5428971923076924        0        
C4        C        0.03125        0.259259        0.5428971923076924        0        
C_FG        C        0.0        0.351852        0.5428971923076924        0.2        
C2        C        0.03125        0.407408        0.5428971923076924        0        
C3        C        0.0        0.42592500000000005        0.5428971923076924        0        
C4        C        0.03125        0.37037        0.5428971923076924        0        
C1        C        0.0        0.46296300000000007        0.5428971923076924        0        
C2        C        0.03125        0.518519        0.5428971923076924        0        
C_FG        C        0.0        0.537037        0.5428971923076924        0.2        
C4        C        0.03125        0.481481        0.5428971923076924        0        
C1        C        0.0        0.574075        0.5428971923076924        0        
C2        C        0.03125        0.62963        0.5428971923076924        0        
C3        C        0.0        0.648148        0.5428971923076924        0        
C4        C        0.03125        0.592592        0.5428971923076924        0        
C1        C        0.0625        0.018519        0.5428971923076924        0        
C2        C        0.09375        0.074075        0.5428971923076924        0        
C3        C        0.0625        0.092592        0.5428971923076924        0        
C4        C        0.09375        0.037037        0.5428971923076924        0        
C1        C        0.0625        0.12963        0.5428971923076924        0        
C2        C        0.09375        0.185185        0.5428971923076924        0        
C3        C        0.0625        0.203703        0.5428971923076924        0        
C4        C        0.09375        0.148148        0.5428971923076924        0        
C1        C        0.0625        0.24074099999999998        0.5428971923076924        0        
C2        C        0.09375        0.296297        0.5428971923076924        0        
C3        C        0.0625        0.314815        0.5428971923076924        0        
C4        C        0.09375        0.259259        0.5428971923076924        0        
C1        C        0.0625        0.351852        0.5428971923076924        0        
C2        C        0.09375        0.407408        0.5428971923076924        0        
C3        C        0.0625        0.42592500000000005        0.5428971923076924        0        
C4        C        0.09375        0.37037        0.5428971923076924        0        
C1        C        0.0625        0.46296300000000007        0.5428971923076924        0        
C2        C        0.09375        0.518519        0.5428971923076924        0        
C3        C        0.0625        0.537037        0.5428971923076924        0        
C4        C        0.09375        0.481481        0.5428971923076924        0        
C1        C        0.0625        0.574075        0.5428971923076924        0        
C2        C        0.09375        0.62963        0.5428971923076924        0        
C3        C        0.0625        0.648148        0.5428971923076924        0        
C4        C        0.09375        0.592592        0.5428971923076924        0        
C_FG        C        0.125        0.018519        0.5428971923076924        0.2        
C2        C        0.15625        0.074075        0.5428971923076924        0        
C3        C        0.125        0.092592        0.5428971923076924        0        
C4        C        0.15625        0.037037        0.5428971923076924        0        
C1        C        0.125        0.12963        0.5428971923076924        0        
C2        C        0.15625        0.185185        0.5428971923076924        0        
C_FG        C        0.125        0.203703        0.5428971923076924        0.2        
C4        C        0.15625        0.148148        0.5428971923076924        0        
C1        C        0.125        0.24074099999999998        0.5428971923076924        0        
C2        C        0.15625        0.296297        0.5428971923076924        0        
C3        C        0.125        0.314815        0.5428971923076924        0        
C4        C        0.15625        0.259259        0.5428971923076924        0        
C_FG        C        0.125        0.351852        0.5428971923076924        0.2        
C2        C        0.15625        0.407408        0.5428971923076924        0        
C3        C        0.125        0.42592500000000005        0.5428971923076924        0        
C4        C        0.15625        0.37037        0.5428971923076924        0        
C1        C        0.125        0.46296300000000007        0.5428971923076924        0        
C2        C        0.15625        0.518519        0.5428971923076924        0        
C_FG        C        0.125        0.537037        0.5428971923076924        0.2        
C4        C        0.15625        0.481481        0.5428971923076924        0        
C1        C        0.125        0.574075        0.5428971923076924        0        
C2        C        0.15625        0.62963        0.5428971923076924        0        
C3        C        0.125        0.648148        0.5428971923076924        0        
C4        C        0.15625        0.592592        0.5428971923076924        0        
C1        C        0.1875        0.018519        0.5428971923076924        0        
C2        C        0.21875        0.074075        0.5428971923076924        0        
C3        C        0.1875        0.092592        0.5428971923076924        0        
C4        C        0.21875        0.037037        0.5428971923076924        0        
C1        C        0.1875        0.12963        0.5428971923076924        0        
C2        C        0.21875        0.185185        0.5428971923076924        0        
C3        C        0.1875        0.203703        0.5428971923076924        0        
C4        C        0.21875        0.148148        0.5428971923076924        0        
C1        C        0.1875        0.24074099999999998        0.5428971923076924        0        
C2        C        0.21875        0.296297        0.5428971923076924        0        
C3        C        0.1875        0.314815        0.5428971923076924        0        
C4        C        0.21875        0.259259        0.5428971923076924        0        
C1        C        0.1875        0.351852        0.5428971923076924        0        
C2        C        0.21875        0.407408        0.5428971923076924        0        
C3        C        0.1875        0.42592500000000005        0.5428971923076924        0        
C4        C        0.21875        0.37037        0.5428971923076924        0        
C1        C        0.1875        0.46296300000000007        0.5428971923076924        0        
C2        C        0.21875        0.518519        0.5428971923076924        0        
C3        C        0.1875        0.537037        0.5428971923076924        0        
C4        C        0.21875        0.481481        0.5428971923076924        0        
C1        C        0.1875        0.574075        0.5428971923076924        0        
C2        C        0.21875        0.62963        0.5428971923076924        0        
C3        C        0.1875        0.648148        0.5428971923076924        0        
C4        C        0.21875        0.592592        0.5428971923076924        0        
C_FG        C        0.25        0.018519        0.5428971923076924        0.2        
C2        C        0.28125        0.074075        0.5428971923076924        0        
C3        C        0.25        0.092592        0.5428971923076924        0        
C4        C        0.28125        0.037037        0.5428971923076924        0        
C1        C        0.25        0.12963        0.5428971923076924        0        
C2        C        0.28125        0.185185        0.5428971923076924        0        
C_FG        C        0.25        0.203703        0.5428971923076924        0.2        
C4        C        0.28125        0.148148        0.5428971923076924        0        
C1        C        0.25        0.24074099999999998        0.5428971923076924        0        
C2        C        0.28125        0.296297        0.5428971923076924        0        
C3        C        0.25        0.314815        0.5428971923076924        0        
C4        C        0.28125        0.259259        0.5428971923076924        0        
C_FG        C        0.25        0.351852        0.5428971923076924        0.2        
C2        C        0.28125        0.407408        0.5428971923076924        0        
C3        C        0.25        0.42592500000000005        0.5428971923076924        0        
C4        C        0.28125        0.37037        0.5428971923076924        0        
C1        C        0.25        0.46296300000000007        0.5428971923076924        0        
C2        C        0.28125        0.518519        0.5428971923076924        0        
C_FG        C        0.25        0.537037        0.5428971923076924        0.2        
C4        C        0.28125        0.481481        0.5428971923076924        0        
C1        C        0.25        0.574075        0.5428971923076924        0        
C2        C        0.28125        0.62963        0.5428971923076924        0        
C3        C        0.25        0.648148        0.5428971923076924        0        
C4        C        0.28125        0.592592        0.5428971923076924        0        
C1        C        0.3125        0.018519        0.5428971923076924        0        
C2        C        0.34375        0.074075        0.5428971923076924        0        
C3        C        0.3125        0.092592        0.5428971923076924        0        
C4        C        0.34375        0.037037        0.5428971923076924        0        
C1        C        0.3125        0.12963        0.5428971923076924        0        
C2        C        0.34375        0.185185        0.5428971923076924        0        
C3        C        0.3125        0.203703        0.5428971923076924        0        
C4        C        0.34375        0.148148        0.5428971923076924        0        
C1        C        0.3125        0.24074099999999998        0.5428971923076924        0        
C2        C        0.34375        0.296297        0.5428971923076924        0        
C3        C        0.3125        0.314815        0.5428971923076924        0        
C4        C        0.34375        0.259259        0.5428971923076924        0        
C1        C        0.3125        0.351852        0.5428971923076924        0        
C2        C        0.34375        0.407408        0.5428971923076924        0        
C3        C        0.3125        0.42592500000000005        0.5428971923076924        0        
C4        C        0.34375        0.37037        0.5428971923076924        0        
C1        C        0.3125        0.46296300000000007        0.5428971923076924        0        
C2        C        0.34375        0.518519        0.5428971923076924        0        
C3        C        0.3125        0.537037        0.5428971923076924        0        
C4        C        0.34375        0.481481        0.5428971923076924        0        
C1        C        0.3125        0.574075        0.5428971923076924        0        
C2        C        0.34375        0.62963        0.5428971923076924        0        
C3        C        0.3125        0.648148        0.5428971923076924        0        
C4        C        0.34375        0.592592        0.5428971923076924        0        
C_FG        C        0.375        0.018519        0.5428971923076924        0.2        
C2        C        0.40625        0.074075        0.5428971923076924        0        
C3        C        0.375        0.092592        0.5428971923076924        0        
C4        C        0.40625        0.037037        0.5428971923076924        0        
C1        C        0.375        0.12963        0.5428971923076924        0        
C2        C        0.40625        0.185185        0.5428971923076924        0        
C_FG        C        0.375        0.203703        0.5428971923076924        0.2        
C4        C        0.40625        0.148148        0.5428971923076924        0        
C1        C        0.375        0.24074099999999998        0.5428971923076924        0        
C2        C        0.40625        0.296297        0.5428971923076924        0        
C3        C        0.375        0.314815        0.5428971923076924        0        
C4        C        0.40625        0.259259        0.5428971923076924        0        
C_FG        C        0.375        0.351852        0.5428971923076924        0.2        
C2        C        0.40625        0.407408        0.5428971923076924        0        
C3        C        0.375        0.42592500000000005        0.5428971923076924        0        
C4        C        0.40625        0.37037        0.5428971923076924        0        
C1        C        0.375        0.46296300000000007        0.5428971923076924        0        
C2        C        0.40625        0.518519        0.5428971923076924        0        
C_FG        C        0.375        0.537037        0.5428971923076924        0.2        
C4        C        0.40625        0.481481        0.5428971923076924        0        
C1        C        0.375        0.574075        0.5428971923076924        0        
C2        C        0.40625        0.62963        0.5428971923076924        0        
C3        C        0.375        0.648148        0.5428971923076924        0        
C4        C        0.40625        0.592592        0.5428971923076924        0        
C1        C        0.4375        0.018519        0.5428971923076924        0        
C2        C        0.46875        0.074075        0.5428971923076924        0        
C3        C        0.4375        0.092592        0.5428971923076924        0        
C4        C        0.46875        0.037037        0.5428971923076924        0        
C1        C        0.4375        0.12963        0.5428971923076924        0        
C2        C        0.46875        0.185185        0.5428971923076924        0        
C3        C        0.4375        0.203703        0.5428971923076924        0        
C4        C        0.46875        0.148148        0.5428971923076924        0        
C1        C        0.4375        0.24074099999999998        0.5428971923076924        0        
C2        C        0.46875        0.296297        0.5428971923076924        0        
C3        C        0.4375        0.314815        0.5428971923076924        0        
C4        C        0.46875        0.259259        0.5428971923076924        0        
C1        C        0.4375        0.351852        0.5428971923076924        0        
C2        C        0.46875        0.407408        0.5428971923076924        0        
C3        C        0.4375        0.42592500000000005        0.5428971923076924        0        
C4        C        0.46875        0.37037        0.5428971923076924        0        
C1        C        0.4375        0.46296300000000007        0.5428971923076924        0        
C2        C        0.46875        0.518519        0.5428971923076924        0        
C3        C        0.4375        0.537037        0.5428971923076924        0        
C4        C        0.46875        0.481481        0.5428971923076924        0        
C1        C        0.4375        0.574075        0.5428971923076924        0        
C2        C        0.46875        0.62963        0.5428971923076924        0        
C3        C        0.4375        0.648148        0.5428971923076924        0        
C4        C        0.46875        0.592592        0.5428971923076924        0        
C_FG        C        0.5        0.018519        0.5428971923076924        0.2        
C2        C        0.53125        0.074075        0.5428971923076924        0        
C3        C        0.5        0.092592        0.5428971923076924        0        
C4        C        0.53125        0.037037        0.5428971923076924        0        
C1        C        0.5        0.12963        0.5428971923076924        0        
C2        C        0.53125        0.185185        0.5428971923076924        0        
C_FG        C        0.5        0.203703        0.5428971923076924        0.2        
C4        C        0.53125        0.148148        0.5428971923076924        0        
C1        C        0.5        0.24074099999999998        0.5428971923076924        0        
C2        C        0.53125        0.296297        0.5428971923076924        0        
C3        C        0.5        0.314815        0.5428971923076924        0        
C4        C        0.53125        0.259259        0.5428971923076924        0        
C_FG        C        0.5        0.351852        0.5428971923076924        0.2        
C2        C        0.53125        0.407408        0.5428971923076924        0        
C3        C        0.5        0.42592500000000005        0.5428971923076924        0        
C4        C        0.53125        0.37037        0.5428971923076924        0        
C1        C        0.5        0.46296300000000007        0.5428971923076924        0        
C2        C        0.53125        0.518519        0.5428971923076924        0        
C_FG        C        0.5        0.537037        0.5428971923076924        0.2        
C4        C        0.53125        0.481481        0.5428971923076924        0        
C1        C        0.5        0.574075        0.5428971923076924        0        
C2        C        0.53125        0.62963        0.5428971923076924        0        
C3        C        0.5        0.648148        0.5428971923076924        0        
C4        C        0.53125        0.592592        0.5428971923076924        0        
C1        C        0.5625        0.018519        0.5428971923076924        0        
C2        C        0.59375        0.074075        0.5428971923076924        0        
C3        C        0.5625        0.092592        0.5428971923076924        0        
C4        C        0.59375        0.037037        0.5428971923076924        0        
C1        C        0.5625        0.12963        0.5428971923076924        0        
C2        C        0.59375        0.185185        0.5428971923076924        0        
C3        C        0.5625        0.203703        0.5428971923076924        0        
C4        C        0.59375        0.148148        0.5428971923076924        0        
C1        C        0.5625        0.24074099999999998        0.5428971923076924        0        
C2        C        0.59375        0.296297        0.5428971923076924        0        
C3        C        0.5625        0.314815        0.5428971923076924        0        
C4        C        0.59375        0.259259        0.5428971923076924        0        
C1        C        0.5625        0.351852        0.5428971923076924        0        
C2        C        0.59375        0.407408        0.5428971923076924        0        
C3        C        0.5625        0.42592500000000005        0.5428971923076924        0        
C4        C        0.59375        0.37037        0.5428971923076924        0        
C1        C        0.5625        0.46296300000000007        0.5428971923076924        0        
C2        C        0.59375        0.518519        0.5428971923076924        0        
C3        C        0.5625        0.537037        0.5428971923076924        0        
C4        C        0.59375        0.481481        0.5428971923076924        0        
C1        C        0.5625        0.574075        0.5428971923076924        0        
C2        C        0.59375        0.62963        0.5428971923076924        0        
C3        C        0.5625        0.648148        0.5428971923076924        0        
C4        C        0.59375        0.592592        0.5428971923076924        0        
C_FG        C        0.625        0.018519        0.5428971923076924        0.2        
C2        C        0.65625        0.074075        0.5428971923076924        0        
C3        C        0.625        0.092592        0.5428971923076924        0        
C4        C        0.65625        0.037037        0.5428971923076924        0        
C1        C        0.625        0.12963        0.5428971923076924        0        
C2        C        0.65625        0.185185        0.5428971923076924        0        
C_FG        C        0.625        0.203703        0.5428971923076924        0.2        
C4        C        0.65625        0.148148        0.5428971923076924        0        
C1        C        0.625        0.24074099999999998        0.5428971923076924        0        
C2        C        0.65625        0.296297        0.5428971923076924        0        
C3        C        0.625        0.314815        0.5428971923076924        0        
C4        C        0.65625        0.259259        0.5428971923076924        0        
C_FG        C        0.625        0.351852        0.5428971923076924        0.2        
C2        C        0.65625        0.407408        0.5428971923076924        0        
C3        C        0.625        0.42592500000000005        0.5428971923076924        0        
C4        C        0.65625        0.37037        0.5428971923076924        0        
C1        C        0.625        0.46296300000000007        0.5428971923076924        0        
C2        C        0.65625        0.518519        0.5428971923076924        0        
C_FG        C        0.625        0.537037        0.5428971923076924        0.2        
C4        C        0.65625        0.481481        0.5428971923076924        0        
C1        C        0.625        0.574075        0.5428971923076924        0        
C2        C        0.65625        0.62963        0.5428971923076924        0        
C3        C        0.625        0.648148        0.5428971923076924        0        
C4        C        0.65625        0.592592        0.5428971923076924        0        
C1        C        0.6875        0.018519        0.5428971923076924        0        
C2        C        0.71875        0.074075        0.5428971923076924        0        
C3        C        0.6875        0.092592        0.5428971923076924        0        
C4        C        0.71875        0.037037        0.5428971923076924        0        
C1        C        0.6875        0.12963        0.5428971923076924        0        
C2        C        0.71875        0.185185        0.5428971923076924        0        
C3        C        0.6875        0.203703        0.5428971923076924        0        
C4        C        0.71875        0.148148        0.5428971923076924        0        
C1        C        0.6875        0.24074099999999998        0.5428971923076924        0        
C2        C        0.71875        0.296297        0.5428971923076924        0        
C3        C        0.6875        0.314815        0.5428971923076924        0        
C4        C        0.71875        0.259259        0.5428971923076924        0        
C1        C        0.6875        0.351852        0.5428971923076924        0        
C2        C        0.71875        0.407408        0.5428971923076924        0        
C3        C        0.6875        0.42592500000000005        0.5428971923076924        0        
C4        C        0.71875        0.37037        0.5428971923076924        0        
C1        C        0.6875        0.46296300000000007        0.5428971923076924        0        
C2        C        0.71875        0.518519        0.5428971923076924        0        
C3        C        0.6875        0.537037        0.5428971923076924        0        
C4        C        0.71875        0.481481        0.5428971923076924        0        
C1        C        0.6875        0.574075        0.5428971923076924        0        
C2        C        0.71875        0.62963        0.5428971923076924        0        
C3        C        0.6875        0.648148        0.5428971923076924        0        
C4        C        0.71875        0.592592        0.5428971923076924        0        
C_FG        C        0.75        0.018519        0.5428971923076924        0.2        
C2        C        0.78125        0.074075        0.5428971923076924        0        
C3        C        0.75        0.092592        0.5428971923076924        0        
C4        C        0.78125        0.037037        0.5428971923076924        0        
C1        C        0.75        0.12963        0.5428971923076924        0        
C2        C        0.78125        0.185185        0.5428971923076924        0        
C_FG        C        0.75        0.203703        0.5428971923076924        0.2        
C4        C        0.78125        0.148148        0.5428971923076924        0        
C1        C        0.75        0.24074099999999998        0.5428971923076924        0        
C2        C        0.78125        0.296297        0.5428971923076924        0        
C3        C        0.75        0.314815        0.5428971923076924        0        
C4        C        0.78125        0.259259        0.5428971923076924        0        
C_FG        C        0.75        0.351852        0.5428971923076924        0.2        
C2        C        0.78125        0.407408        0.5428971923076924        0        
C3        C        0.75        0.42592500000000005        0.5428971923076924        0        
C4        C        0.78125        0.37037        0.5428971923076924        0        
C1        C        0.75        0.46296300000000007        0.5428971923076924        0        
C2        C        0.78125        0.518519        0.5428971923076924        0        
C_FG        C        0.75        0.537037        0.5428971923076924        0.2        
C4        C        0.78125        0.481481        0.5428971923076924        0        
C1        C        0.75        0.574075        0.5428971923076924        0        
C2        C        0.78125        0.62963        0.5428971923076924        0        
C3        C        0.75        0.648148        0.5428971923076924        0        
C4        C        0.78125        0.592592        0.5428971923076924        0        
C1        C        0.8125        0.018519        0.5428971923076924        0        
C2        C        0.84375        0.074075        0.5428971923076924        0        
C3        C        0.8125        0.092592        0.5428971923076924        0        
C4        C        0.84375        0.037037        0.5428971923076924        0        
C1        C        0.8125        0.12963        0.5428971923076924        0        
C2        C        0.84375        0.185185        0.5428971923076924        0        
C3        C        0.8125        0.203703        0.5428971923076924        0        
C4        C        0.84375        0.148148        0.5428971923076924        0        
C1        C        0.8125        0.24074099999999998        0.5428971923076924        0        
C2        C        0.84375        0.296297        0.5428971923076924        0        
C3        C        0.8125        0.314815        0.5428971923076924        0        
C4        C        0.84375        0.259259        0.5428971923076924        0        
C1        C        0.8125        0.351852        0.5428971923076924        0        
C2        C        0.84375        0.407408        0.5428971923076924        0        
C3        C        0.8125        0.42592500000000005        0.5428971923076924        0        
C4        C        0.84375        0.37037        0.5428971923076924        0        
C1        C        0.8125        0.46296300000000007        0.5428971923076924        0        
C2        C        0.84375        0.518519        0.5428971923076924        0        
C3        C        0.8125        0.537037        0.5428971923076924        0        
C4        C        0.84375        0.481481        0.5428971923076924        0        
C1        C        0.8125        0.574075        0.5428971923076924        0        
C2        C        0.84375        0.62963        0.5428971923076924        0        
C3        C        0.8125        0.648148        0.5428971923076924        0        
C4        C        0.84375        0.592592        0.5428971923076924        0        
C_FG        C        0.875        0.018519        0.5428971923076924        0.2        
C2        C        0.9062500000000001        0.074075        0.5428971923076924        0        
C3        C        0.875        0.092592        0.5428971923076924        0        
C4        C        0.9062500000000001        0.037037        0.5428971923076924        0        
C1        C        0.875        0.12963        0.5428971923076924        0        
C2        C        0.9062500000000001        0.185185        0.5428971923076924        0        
C_FG        C        0.875        0.203703        0.5428971923076924        0.2        
C4        C        0.9062500000000001        0.148148        0.5428971923076924        0        
C1        C        0.875        0.24074099999999998        0.5428971923076924        0        
C2        C        0.9062500000000001        0.296297        0.5428971923076924        0        
C3        C        0.875        0.314815        0.5428971923076924        0        
C4        C        0.9062500000000001        0.259259        0.5428971923076924        0        
C_FG        C        0.875        0.351852        0.5428971923076924        0.2        
C2        C        0.9062500000000001        0.407408        0.5428971923076924        0        
C3        C        0.875        0.42592500000000005        0.5428971923076924        0        
C4        C        0.9062500000000001        0.37037        0.5428971923076924        0        
C1        C        0.875        0.46296300000000007        0.5428971923076924        0        
C2        C        0.9062500000000001        0.518519        0.5428971923076924        0        
C_FG        C        0.875        0.537037        0.5428971923076924        0.2        
C4        C        0.9062500000000001        0.481481        0.5428971923076924        0        
C1        C        0.875        0.574075        0.5428971923076924        0        
C2        C        0.9062500000000001        0.62963        0.5428971923076924        0        
C3        C        0.875        0.648148        0.5428971923076924        0        
C4        C        0.9062500000000001        0.592592        0.5428971923076924        0        
C1        C        0.9375        0.018519        0.5428971923076924        0        
C2        C        0.9687500000000001        0.074075        0.5428971923076924        0        
C3        C        0.9375        0.092592        0.5428971923076924        0        
C4        C        0.9687500000000001        0.037037        0.5428971923076924        0        
C1        C        0.9375        0.12963        0.5428971923076924        0        
C2        C        0.9687500000000001        0.185185        0.5428971923076924        0        
C3        C        0.9375        0.203703        0.5428971923076924        0        
C4        C        0.9687500000000001        0.148148        0.5428971923076924        0        
C1        C        0.9375        0.24074099999999998        0.5428971923076924        0        
C2        C        0.9687500000000001        0.296297        0.5428971923076924        0        
C3        C        0.9375        0.314815        0.5428971923076924        0        
C4        C        0.9687500000000001        0.259259        0.5428971923076924        0        
C1        C        0.9375        0.351852        0.5428971923076924        0        
C2        C        0.9687500000000001        0.407408        0.5428971923076924        0        
C3        C        0.9375        0.42592500000000005        0.5428971923076924        0        
C4        C        0.9687500000000001        0.37037        0.5428971923076924        0        
C1        C        0.9375        0.46296300000000007        0.5428971923076924        0        
C2        C        0.9687500000000001        0.518519        0.5428971923076924        0        
C3        C        0.9375        0.537037        0.5428971923076924        0        
C4        C        0.9687500000000001        0.481481        0.5428971923076924        0        
C1        C        0.9375        0.574075        0.5428971923076924        0        
C2        C        0.9687500000000001        0.62963        0.5428971923076924        0        
C3        C        0.9375        0.648148        0.5428971923076924        0        
C4        C        0.9687500000000001        0.592592        0.5428971923076924        0        
C_FG        C        0.0        0.685186        0.5428971923076924        0.2        
C1        C        0.0625        0.685186        0.5428971923076924        0        
C_FG        C        0.125        0.685186        0.5428971923076924        0.2        
C1        C        0.1875        0.685186        0.5428971923076924        0        
C_FG        C        0.25        0.685186        0.5428971923076924        0.2        
C1        C        0.3125        0.685186        0.5428971923076924        0        
C_FG        C        0.375        0.685186        0.5428971923076924        0.2        
C1        C        0.4375        0.685186        0.5428971923076924        0        
C_FG        C        0.5        0.685186        0.5428971923076924        0.2        
C1        C        0.5625        0.685186        0.5428971923076924        0        
C_FG        C        0.625        0.685186        0.5428971923076924        0.2        
C1        C        0.6875        0.685186        0.5428971923076924        0        
C_FG        C        0.75        0.685186        0.5428971923076924        0.2        
C1        C        0.8125        0.685186        0.5428971923076924        0        
C_FG        C        0.875        0.685186        0.5428971923076924        0.2        
C1        C        0.9375        0.685186        0.5428971923076924        0        
C2        C        0.03125        0.740741        0.5428971923076924        0        
C2        C        0.09375        0.740741        0.5428971923076924        0        
C2        C        0.15625        0.740741        0.5428971923076924        0        
C2        C        0.21875        0.740741        0.5428971923076924        0        
C2        C        0.28125        0.740741        0.5428971923076924        0        
C2        C        0.34375        0.740741        0.5428971923076924        0        
C2        C        0.40625        0.740741        0.5428971923076924        0        
C2        C        0.46875        0.740741        0.5428971923076924        0        
C2        C        0.53125        0.740741        0.5428971923076924        0        
C2        C        0.59375        0.740741        0.5428971923076924        0        
C2        C        0.65625        0.740741        0.5428971923076924        0        
C2        C        0.71875        0.740741        0.5428971923076924        0        
C2        C        0.78125        0.740741        0.5428971923076924        0        
C2        C        0.84375        0.740741        0.5428971923076924        0        
C2        C        0.9062500000000001        0.740741        0.5428971923076924        0        
C2        C        0.9687500000000001        0.740741        0.5428971923076924        0        
C3        C        0.0        0.759259        0.5428971923076924        0        
C3        C        0.0625        0.759259        0.5428971923076924        0        
C3        C        0.125        0.759259        0.5428971923076924        0        
C3        C        0.1875        0.759259        0.5428971923076924        0        
C3        C        0.25        0.759259        0.5428971923076924        0        
C3        C        0.3125        0.759259        0.5428971923076924        0        
C3        C        0.375        0.759259        0.5428971923076924        0        
C3        C        0.4375        0.759259        0.5428971923076924        0        
C3        C        0.5        0.759259        0.5428971923076924        0        
C3        C        0.5625        0.759259        0.5428971923076924        0        
C3        C        0.625        0.759259        0.5428971923076924        0        
C3        C        0.6875        0.759259        0.5428971923076924        0        
C3        C        0.75        0.759259        0.5428971923076924        0        
C3        C        0.8125        0.759259        0.5428971923076924        0        
C3        C        0.875        0.759259        0.5428971923076924        0        
C3        C        0.9375        0.759259        0.5428971923076924        0        
C4        C        0.03125        0.703703        0.5428971923076924        0        
C4        C        0.09375        0.703703        0.5428971923076924        0        
C4        C        0.15625        0.703703        0.5428971923076924        0        
C4        C        0.21875        0.703703        0.5428971923076924        0        
C4        C        0.28125        0.703703        0.5428971923076924        0        
C4        C        0.34375        0.703703        0.5428971923076924        0        
C4        C        0.40625        0.703703        0.5428971923076924        0        
C4        C        0.46875        0.703703        0.5428971923076924        0        
C4        C        0.53125        0.703703        0.5428971923076924        0        
C4        C        0.59375        0.703703        0.5428971923076924        0        
C4        C        0.65625        0.703703        0.5428971923076924        0        
C4        C        0.71875        0.703703        0.5428971923076924        0        
C4        C        0.78125        0.703703        0.5428971923076924        0        
C4        C        0.84375        0.703703        0.5428971923076924        0        
C4        C        0.9062500000000001        0.703703        0.5428971923076924        0        
C4        C        0.9687500000000001        0.703703        0.5428971923076924        0        
C1        C        0.0        0.796297        0.5428971923076924        0        
C1        C        0.0625        0.796297        0.5428971923076924        0        
C1        C        0.125        0.796297        0.5428971923076924        0        
C1        C        0.1875        0.796297        0.5428971923076924        0        
C1        C        0.25        0.796297        0.5428971923076924        0        
C1        C        0.3125        0.796297        0.5428971923076924        0        
C1        C        0.375        0.796297        0.5428971923076924        0        
C1        C        0.4375        0.796297        0.5428971923076924        0        
C1        C        0.5        0.796297        0.5428971923076924        0        
C1        C        0.5625        0.796297        0.5428971923076924        0        
C1        C        0.625        0.796297        0.5428971923076924        0        
C1        C        0.6875        0.796297        0.5428971923076924        0        
C1        C        0.75        0.796297        0.5428971923076924        0        
C1        C        0.8125        0.796297        0.5428971923076924        0        
C1        C        0.875        0.796297        0.5428971923076924        0        
C1        C        0.9375        0.796297        0.5428971923076924        0        
C2        C        0.03125        0.851852        0.5428971923076924        0        
C2        C        0.09375        0.851852        0.5428971923076924        0        
C2        C        0.15625        0.851852        0.5428971923076924        0        
C2        C        0.21875        0.851852        0.5428971923076924        0        
C2        C        0.28125        0.851852        0.5428971923076924        0        
C2        C        0.34375        0.851852        0.5428971923076924        0        
C2        C        0.40625        0.851852        0.5428971923076924        0        
C2        C        0.46875        0.851852        0.5428971923076924        0        
C2        C        0.53125        0.851852        0.5428971923076924        0        
C2        C        0.59375        0.851852        0.5428971923076924        0        
C2        C        0.65625        0.851852        0.5428971923076924        0        
C2        C        0.71875        0.851852        0.5428971923076924        0        
C2        C        0.78125        0.851852        0.5428971923076924        0        
C2        C        0.84375        0.851852        0.5428971923076924        0        
C2        C        0.9062500000000001        0.851852        0.5428971923076924        0        
C2        C        0.9687500000000001        0.851852        0.5428971923076924        0        
C_FG        C        0.0        0.87037        0.5428971923076924        0.2        
C3        C        0.0625        0.87037        0.5428971923076924        0        
C_FG        C        0.125        0.87037        0.5428971923076924        0.2        
C3        C        0.1875        0.87037        0.5428971923076924        0        
C_FG        C        0.25        0.87037        0.5428971923076924        0.2        
C3        C        0.3125        0.87037        0.5428971923076924        0        
C_FG        C        0.375        0.87037        0.5428971923076924        0.2        
C3        C        0.4375        0.87037        0.5428971923076924        0        
C_FG        C        0.5        0.87037        0.5428971923076924        0.2        
C3        C        0.5625        0.87037        0.5428971923076924        0        
C_FG        C        0.625        0.87037        0.5428971923076924        0.2        
C3        C        0.6875        0.87037        0.5428971923076924        0        
C_FG        C        0.75        0.87037        0.5428971923076924        0.2        
C3        C        0.8125        0.87037        0.5428971923076924        0        
C_FG        C        0.875        0.87037        0.5428971923076924        0.2        
C3        C        0.9375        0.87037        0.5428971923076924        0        
C4        C        0.03125        0.814814        0.5428971923076924        0        
C4        C        0.09375        0.814814        0.5428971923076924        0        
C4        C        0.15625        0.814814        0.5428971923076924        0        
C4        C        0.21875        0.814814        0.5428971923076924        0        
C4        C        0.28125        0.814814        0.5428971923076924        0        
C4        C        0.34375        0.814814        0.5428971923076924        0        
C4        C        0.40625        0.814814        0.5428971923076924        0        
C4        C        0.46875        0.814814        0.5428971923076924        0        
C4        C        0.53125        0.814814        0.5428971923076924        0        
C4        C        0.59375        0.814814        0.5428971923076924        0        
C4        C        0.65625        0.814814        0.5428971923076924        0        
C4        C        0.71875        0.814814        0.5428971923076924        0        
C4        C        0.78125        0.814814        0.5428971923076924        0        
C4        C        0.84375        0.814814        0.5428971923076924        0        
C4        C        0.9062500000000001        0.814814        0.5428971923076924        0        
C4        C        0.9687500000000001        0.814814        0.5428971923076924        0        
C1        C        0.0        0.907408        0.5428971923076924        0        
C1        C        0.0625        0.907408        0.5428971923076924        0        
C1        C        0.125        0.907408        0.5428971923076924        0        
C1        C        0.1875        0.907408        0.5428971923076924        0        
C1        C        0.25        0.907408        0.5428971923076924        0        
C1        C        0.3125        0.907408        0.5428971923076924        0        
C1        C        0.375        0.907408        0.5428971923076924        0        
C1        C        0.4375        0.907408        0.5428971923076924        0        
C1        C        0.5        0.907408        0.5428971923076924        0        
C1        C        0.5625        0.907408        0.5428971923076924        0        
C1        C        0.625        0.907408        0.5428971923076924        0        
C1        C        0.6875        0.907408        0.5428971923076924        0        
C1        C        0.75        0.907408        0.5428971923076924        0        
C1        C        0.8125        0.907408        0.5428971923076924        0        
C1        C        0.875        0.907408        0.5428971923076924        0        
C1        C        0.9375        0.907408        0.5428971923076924        0        
C2        C        0.03125        0.962963        0.5428971923076924        0        
C2        C        0.09375        0.962963        0.5428971923076924        0        
C2        C        0.15625        0.962963        0.5428971923076924        0        
C2        C        0.21875        0.962963        0.5428971923076924        0        
C2        C        0.28125        0.962963        0.5428971923076924        0        
C2        C        0.34375        0.962963        0.5428971923076924        0        
C2        C        0.40625        0.962963        0.5428971923076924        0        
C2        C        0.46875        0.962963        0.5428971923076924        0        
C2        C        0.53125        0.962963        0.5428971923076924        0        
C2        C        0.59375        0.962963        0.5428971923076924        0        
C2        C        0.65625        0.962963        0.5428971923076924        0        
C2        C        0.71875        0.962963        0.5428971923076924        0        
C2        C        0.78125        0.962963        0.5428971923076924        0        
C2        C        0.84375        0.962963        0.5428971923076924        0        
C2        C        0.9062500000000001        0.962963        0.5428971923076924        0        
C2        C        0.9687500000000001        0.962963        0.5428971923076924        0        
C3        C        0.0        0.9814809999999999        0.5428971923076924        0        
C3        C        0.0625        0.9814809999999999        0.5428971923076924        0        
C3        C        0.125        0.9814809999999999        0.5428971923076924        0        
C3        C        0.1875        0.9814809999999999        0.5428971923076924        0        
C3        C        0.25        0.9814809999999999        0.5428971923076924        0        
C3        C        0.3125        0.9814809999999999        0.5428971923076924        0        
C3        C        0.375        0.9814809999999999        0.5428971923076924        0        
C3        C        0.4375        0.9814809999999999        0.5428971923076924        0        
C3        C        0.5        0.9814809999999999        0.5428971923076924        0        
C3        C        0.5625        0.9814809999999999        0.5428971923076924        0        
C3        C        0.625        0.9814809999999999        0.5428971923076924        0        
C3        C        0.6875        0.9814809999999999        0.5428971923076924        0        
C3        C        0.75        0.9814809999999999        0.5428971923076924        0        
C3        C        0.8125        0.9814809999999999        0.5428971923076924        0        
C3        C        0.875        0.9814809999999999        0.5428971923076924        0        
C3        C        0.9375        0.9814809999999999        0.5428971923076924        0        
C4        C        0.03125        0.925925        0.5428971923076924        0        
C4        C        0.09375        0.925925        0.5428971923076924        0        
C4        C        0.15625        0.925925        0.5428971923076924        0        
C4        C        0.21875        0.925925        0.5428971923076924        0        
C4        C        0.28125        0.925925        0.5428971923076924        0        
C4        C        0.34375        0.925925        0.5428971923076924        0        
C4        C        0.40625        0.925925        0.5428971923076924        0        
C4        C        0.46875        0.925925        0.5428971923076924        0        
C4        C        0.53125        0.925925        0.5428971923076924        0        
C4        C        0.59375        0.925925        0.5428971923076924        0        
C4        C        0.65625        0.925925        0.5428971923076924        0        
C4        C        0.71875        0.925925        0.5428971923076924        0        
C4        C        0.78125        0.925925        0.5428971923076924        0        
C4        C        0.84375        0.925925        0.5428971923076924        0        
C4        C        0.9062500000000001        0.925925        0.5428971923076924        0        
C4        C        0.9687500000000001        0.925925        0.5428971923076924        0        
O_OH        O        0.0        0.018519        0.021551217948717945        -0.64        
O_OH        O        0.0        0.203703        0.021551217948717945        -0.64        
O_OH        O        0.0        0.351852        0.021551217948717945        -0.64        
O_OH        O        0.0        0.537037        0.021551217948717945        -0.64        
O_OH        O        0.125        0.018519        0.021551217948717945        -0.64        
O_OH        O        0.125        0.203703        0.021551217948717945        -0.64        
O_OH        O        0.125        0.351852        0.021551217948717945        -0.64        
O_OH        O        0.125        0.537037        0.021551217948717945        -0.64        
O_OH        O        0.25        0.018519        0.021551217948717945        -0.64        
O_OH        O        0.25        0.203703        0.021551217948717945        -0.64        
O_OH        O        0.25        0.351852        0.021551217948717945        -0.64        
O_OH        O        0.25        0.537037        0.021551217948717945        -0.64        
O_OH        O        0.375        0.018519        0.021551217948717945        -0.64        
O_OH        O        0.375        0.203703        0.021551217948717945        -0.64        
O_OH        O        0.375        0.351852        0.021551217948717945        -0.64        
O_OH        O        0.375        0.537037        0.021551217948717945        -0.64        
O_OH        O        0.5        0.018519        0.021551217948717945        -0.64        
O_OH        O        0.5        0.203703        0.021551217948717945        -0.64        
O_OH        O        0.5        0.351852        0.021551217948717945        -0.64        
O_OH        O        0.5        0.537037        0.021551217948717945        -0.64        
O_OH        O        0.625        0.018519        0.021551217948717945        -0.64        
O_OH        O        0.625        0.203703        0.021551217948717945        -0.64        
O_OH        O        0.625        0.351852        0.021551217948717945        -0.64        
O_OH        O        0.625        0.537037        0.021551217948717945        -0.64        
O_OH        O        0.75        0.018519        0.021551217948717945        -0.64        
O_OH        O        0.75        0.203703        0.021551217948717945        -0.64        
O_OH        O        0.75        0.351852        0.021551217948717945        -0.64        
O_OH        O        0.75        0.537037        0.021551217948717945        -0.64        
O_OH        O        0.875        0.018519        0.021551217948717945        -0.64        
O_OH        O        0.875        0.203703        0.021551217948717945        -0.64        
O_OH        O        0.875        0.351852        0.021551217948717945        -0.64        
O_OH        O        0.875        0.537037        0.021551217948717945        -0.64        
O_OH        O        0.0        0.685186        0.021551217948717945        -0.64        
O_OH        O        0.125        0.685186        0.021551217948717945        -0.64        
O_OH        O        0.25        0.685186        0.021551217948717945        -0.64        
O_OH        O        0.375        0.685186        0.021551217948717945        -0.64        
O_OH        O        0.5        0.685186        0.021551217948717945        -0.64        
O_OH        O        0.625        0.685186        0.021551217948717945        -0.64        
O_OH        O        0.75        0.685186        0.021551217948717945        -0.64        
O_OH        O        0.875        0.685186        0.021551217948717945        -0.64        
O_OH        O        0.0        0.87037        0.021551217948717945        -0.64        
O_OH        O        0.125        0.87037        0.021551217948717945        -0.64        
O_OH        O        0.25        0.87037        0.021551217948717945        -0.64        
O_OH        O        0.375        0.87037        0.021551217948717945        -0.64        
O_OH        O        0.5        0.87037        0.021551217948717945        -0.64        
O_OH        O        0.625        0.87037        0.021551217948717945        -0.64        
O_OH        O        0.75        0.87037        0.021551217948717945        -0.64        
O_OH        O        0.875        0.87037        0.021551217948717945        -0.64        
O_OH        O        0.0        0.018519        0.6347563461538461        -0.64        
O_OH        O        0.0        0.203703        0.6347563461538461        -0.64        
O_OH        O        0.0        0.351852        0.6347563461538461        -0.64        
O_OH        O        0.0        0.537037        0.6347563461538461        -0.64        
O_OH        O        0.125        0.018519        0.6347563461538461        -0.64        
O_OH        O        0.125        0.203703        0.6347563461538461        -0.64        
O_OH        O        0.125        0.351852        0.6347563461538461        -0.64        
O_OH        O        0.125        0.537037        0.6347563461538461        -0.64        
O_OH        O        0.25        0.018519        0.6347563461538461        -0.64        
O_OH        O        0.25        0.203703        0.6347563461538461        -0.64        
O_OH        O        0.25        0.351852        0.6347563461538461        -0.64        
O_OH        O        0.25        0.537037        0.6347563461538461        -0.64        
O_OH        O        0.375        0.018519        0.6347563461538461        -0.64        
O_OH        O        0.375        0.203703        0.6347563461538461        -0.64        
O_OH        O        0.375        0.351852        0.6347563461538461        -0.64        
O_OH        O        0.375        0.537037        0.6347563461538461        -0.64        
O_OH        O        0.5        0.018519        0.6347563461538461        -0.64        
O_OH        O        0.5        0.203703        0.6347563461538461        -0.64        
O_OH        O        0.5        0.351852        0.6347563461538461        -0.64        
O_OH        O        0.5        0.537037        0.6347563461538461        -0.64        
O_OH        O        0.625        0.018519        0.6347563461538461        -0.64        
O_OH        O        0.625        0.203703        0.6347563461538461        -0.64        
O_OH        O        0.625        0.351852        0.6347563461538461        -0.64        
O_OH        O        0.625        0.537037        0.6347563461538461        -0.64        
O_OH        O        0.75        0.018519        0.6347563461538461        -0.64        
O_OH        O        0.75        0.203703        0.6347563461538461        -0.64        
O_OH        O        0.75        0.351852        0.6347563461538461        -0.64        
O_OH        O        0.75        0.537037        0.6347563461538461        -0.64        
O_OH        O        0.875        0.018519        0.6347563461538461        -0.64        
O_OH        O        0.875        0.203703        0.6347563461538461        -0.64        
O_OH        O        0.875        0.351852        0.6347563461538461        -0.64        
O_OH        O        0.875        0.537037        0.6347563461538461        -0.64        
O_OH        O        0.0        0.685186        0.6347563461538461        -0.64        
O_OH        O        0.125        0.685186        0.6347563461538461        -0.64        
O_OH        O        0.25        0.685186        0.6347563461538461        -0.64        
O_OH        O        0.375        0.685186        0.6347563461538461        -0.64        
O_OH        O        0.5        0.685186        0.6347563461538461        -0.64        
O_OH        O        0.625        0.685186        0.6347563461538461        -0.64        
O_OH        O        0.75        0.685186        0.6347563461538461        -0.64        
O_OH        O        0.875        0.685186        0.6347563461538461        -0.64        
O_OH        O        0.0        0.87037        0.6347563461538461        -0.64        
O_OH        O        0.125        0.87037        0.6347563461538461        -0.64        
O_OH        O        0.25        0.87037        0.6347563461538461        -0.64        
O_OH        O        0.375        0.87037        0.6347563461538461        -0.64        
O_OH        O        0.5        0.87037        0.6347563461538461        -0.64        
O_OH        O        0.625        0.87037        0.6347563461538461        -0.64        
O_OH        O        0.75        0.87037        0.6347563461538461        -0.64        
O_OH        O        0.875        0.87037        0.6347563461538461        -0.64        
H_OH        H        -0.02282067128899413        0.019615731650580538        0.0        0.44        
H_OH        H        0.021694965152913213        0.21105256829308666        0.0        0.44        
H_OH        H        0.0030690792625349466        0.375092853192778        0.0        0.44        
H_OH        H        -0.010969266684002018        0.5576100920910627        0.0        0.44        
H_OH        H        0.1296951755527079        0.04147180200313209        0.0        0.44        
H_OH        H        0.1054160547512272        0.2157800452001382        0.0        0.44        
H_OH        H        0.10519054375369451        0.3635349964325445        0.0        0.44        
H_OH        H        0.1290857855312556        0.560112325686457        0.0        0.44        
H_OH        H        0.27186981503937707        0.0253004573433618        0.0        0.44        
H_OH        H        0.23296033549177997        0.21932540988996238        0.0        0.44        
H_OH        H        0.2561864794034654        0.37442916382267044        0.0        0.44        
H_OH        H        0.23056172755096446        0.5493595800940582        0.0        0.44        
H_OH        H        0.39725438954557557        0.02382034114915056        0.0        0.44        
H_OH        H        0.38616577126685964        0.22416437745034298        0.0        0.44        
H_OH        H        0.3611600712748109        0.3705119430627861        0.0        0.44        
H_OH        H        0.39057320845708954        0.5541969412256263        0.0        0.44        
H_OH        H        0.4779769180824796        0.024755836250030618        0.0        0.44        
H_OH        H        0.5228183790769959        0.20484889487829047        0.0        0.44        
H_OH        H        0.4836337614473371        0.3682156489527914        0.0        0.44        
H_OH        H        0.4824586847546909        0.552062871238535        0.0        0.44        
H_OH        H        0.6041622706897753        0.028133702708335283        0.0        0.44        
H_OH        H        0.6080526707458094        0.21943090791144237        0.0        0.44        
H_OH        H        0.6129807452081493        0.3717972510450845        0.0        0.44        
H_OH        H        0.6353819514396882        0.5579288193086867        0.0        0.44        
H_OH        H        0.7397867021168748        0.03949824810271025        0.0        0.44        
H_OH        H        0.7317669159584937        0.21783434470465243        0.0        0.44        
H_OH        H        0.7558931934353219        0.3745117029557175        0.0        0.44        
H_OH        H        0.7395332042011252        0.557884154329606        0.0        0.44        
H_OH        H        0.8548234326276043        0.0295199837215456        0.0        0.44        
H_OH        H        0.8594886218163715        0.22092186105547326        0.0        0.44        
H_OH        H        0.8957024030891944        0.3617700171383252        0.0        0.44        
H_OH        H        0.893201586059938        0.5512110748069569        0.0        0.44        
H_OH        H        -0.015496573382771333        0.7024189043863253        0.0        0.44        
H_OH        H        0.11015739258489902        0.7030152882567265        0.0        0.44        
H_OH        H        0.24614917756617344        0.7083038720573944        0.0        0.44        
H_OH        H        0.39352699152749415        0.6989085482662426        0.0        0.44        
H_OH        H        0.5112494034700538        0.7055990415250346        0.0        0.44        
H_OH        H        0.6122755874132965        0.7046648119302832        0.0        0.44        
H_OH        H        0.7675394441849843        0.7002141729973624        0.0        0.44        
H_OH        H        0.8847040138655049        0.706418506193901        0.0        0.44        
H_OH        H        0.011398096838786826        0.8906959235352797        0.0        0.44        
H_OH        H        0.14674874328388907        0.8775501022099921        0.0        0.44        
H_OH        H        0.23521077454556794        0.8882459785622786        0.0        0.44        
H_OH        H        0.3843685447283685        0.8917607115777838        0.0        0.44        
H_OH        H        0.5228200305492028        0.8714806938525592        0.0        0.44        
H_OH        H        0.6059307942228137        0.8832860385041494        0.0        0.44        
H_OH        H        0.7701511260383971        0.8814200203784917        0.0        0.44        
H_OH        H        0.8522356752326338        0.8723473371798113        0.0        0.44        
H_OH        H        -0.021122154009717793        0.027455701036318107        0.6563075641025641        0.44        
H_OH        H        0.008252037794446275        0.22557299678204584        0.6563075641025641        0.44        
H_OH        H        -0.022018650299103795        0.3581053051790177        0.6563075641025641        0.44        
H_OH        H        -0.01999727482159709        0.5483777611225858        0.6563075641025641        0.44        
H_OH        H        0.10239180749966371        0.02189182119094928        0.6563075641025641        0.44        
H_OH        H        0.1469599877170289        0.21017005681249532        0.6563075641025641        0.44        
H_OH        H        0.11697736225175084        0.3738117691438797        0.6563075641025641        0.44        
H_OH        H        0.10574779439208683        0.5496636835188377        0.6563075641025641        0.44        
H_OH        H        0.27163463272459565        0.02605367184750827        0.6563075641025641        0.44        
H_OH        H        0.2717657190842869        0.21082868225640483        0.6563075641025641        0.44        
H_OH        H        0.24272310458732568        0.37408387181919966        0.6563075641025641        0.44        
H_OH        H        0.24963007476574775        0.5604873758862012        0.6563075641025641        0.44        
H_OH        H        0.3565886932645281        0.032404673326172445        0.6563075641025641        0.44        
H_OH        H        0.35552282380287203        0.21596066686600374        0.6563075641025641        0.44        
H_OH        H        0.3542133514054455        0.36158253684857955        0.6563075641025641        0.44        
H_OH        H        0.3679125603002214        0.5593332834793516        0.6563075641025641        0.44        
H_OH        H        0.4928720246006869        0.04080166045902893        0.6563075641025641        0.44        
H_OH        H        0.5178508709688026        0.21833960677184377        0.6563075641025641        0.44        
H_OH        H        0.514033052407996        0.3703593044119875        0.6563075641025641        0.44        
H_OH        H        0.482222422859521        0.5517673223394826        0.6563075641025641        0.44        
H_OH        H        0.6022731507652697        0.020907845845034922        0.6563075641025641        0.44        
H_OH        H        0.6091389984151382        0.22058284834785172        0.6563075641025641        0.44        
H_OH        H        0.6476638088040519        0.3548053554838426        0.6563075641025641        0.44        
H_OH        H        0.6364428335277345        0.5573364149471336        0.6563075641025641        0.44        
H_OH        H        0.7307869013927163        0.03120830664214634        0.6563075641025641        0.44        
H_OH        H        0.7515725230657401        0.22710082465041925        0.6563075641025641        0.44        
H_OH        H        0.7466979957838924        0.37505918126859306        0.6563075641025641        0.44        
H_OH        H        0.7272083638738158        0.5386490127812962        0.6563075641025641        0.44        
H_OH        H        0.8530675673409818        0.0250838679384821        0.6563075641025641        0.44        
H_OH        H        0.8977073868719039        0.2062795320908964        0.6563075641025641        0.44        
H_OH        H        0.8897177786862146        0.3697900170058253        0.6563075641025641        0.44        
H_OH        H        0.8567408831648631        0.5511328749084864        0.6563075641025641        0.44        
H_OH        H        -0.008449776017966502        0.7069762755892838        0.6563075641025641        0.44        
H_OH        H        0.12720390484185465        0.7085300629549477        0.6563075641025641        0.44        
H_OH        H        0.2359722812838525        0.7036975654001655        0.6563075641025641        0.44        
H_OH        H        0.35218743471608366        0.686448009204605        0.6563075641025641        0.44        
H_OH        H        0.508406183822354        0.706994037860807        0.6563075641025641        0.44        
H_OH        H        0.6036607829573408        0.6935616133838354        0.6563075641025641        0.44        
H_OH        H        0.7322888494819279        0.7000004150648685        0.6563075641025641        0.44        
H_OH        H        0.8524665801406013        0.6890503584005216        0.6563075641025641        0.44        
H_OH        H        -0.0034579798628023265        0.8935532271478429        0.6563075641025641        0.44        
H_OH        H        0.11069792522586656        0.888658973298867        0.6563075641025641        0.44        
H_OH        H        0.27188831861878443        0.877088245816305        0.6563075641025641        0.44        
H_OH        H        0.3866499513011909        0.8905448716273956        0.6563075641025641        0.44        
H_OH        H        0.5225399281935862        0.8741941465808891        0.6563075641025641        0.44        
H_OH        H        0.6078173751393502        0.8858265028501008        0.6563075641025641        0.44        
H_OH        H        0.7271554735465263        0.8706039576154265        0.6563075641025641        0.44        
H_OH        H        0.8855734462795338        0.8911603561054593        0.6563075641025641        0.44        
