data_graphite_ortho

_audit_creation_method RASPA-1.0
_audit_creation_date 2012-2-3
_audit_author_name 'David Dubbeldam'

_cell_length_a    39.36    
_cell_length_b    38.34    
_cell_length_c    12.25    
_cell_angle_alpha 90
_cell_angle_beta  90
_cell_angle_gamma 90
_cell_volume      18486.01      

_symmetry_cell_setting          triclinic
_symmetry_space_group_name_Hall 'P 1'
_symmetry_space_group_name_H-M  'P 1'
_symmetry_Int_Tables_number     1

_symmetry_equiv_pos_as_xyz 'x,y,z'

loop_
_atom_site_label
_atom_site_type_symbol
_atom_site_fract_x
_atom_site_fract_y
_atom_site_fract_z
_atom_site_charge
C_FG        C        0.0        0.018519        0.1444244081632653        0.2        
C2        C        0.03125        0.074075        0.1444244081632653        0        
C3        C        0.0        0.092592        0.1444244081632653        0        
C4        C        0.03125        0.037037        0.1444244081632653        0        
C1        C        0.0        0.12963        0.1444244081632653        0        
C2        C        0.03125        0.185185        0.1444244081632653        0        
C_FG        C        0.0        0.203703        0.1444244081632653        0.2        
C4        C        0.03125        0.148148        0.1444244081632653        0        
C1        C        0.0        0.24074099999999998        0.1444244081632653        0        
C2        C        0.03125        0.296297        0.1444244081632653        0        
C3        C        0.0        0.314815        0.1444244081632653        0        
C4        C        0.03125        0.259259        0.1444244081632653        0        
C_FG        C        0.0        0.351852        0.1444244081632653        0.2        
C2        C        0.03125        0.407408        0.1444244081632653        0        
C3        C        0.0        0.42592500000000005        0.1444244081632653        0        
C4        C        0.03125        0.37037        0.1444244081632653        0        
C1        C        0.0        0.46296300000000007        0.1444244081632653        0        
C2        C        0.03125        0.518519        0.1444244081632653        0        
C_FG        C        0.0        0.537037        0.1444244081632653        0.2        
C4        C        0.03125        0.481481        0.1444244081632653        0        
C1        C        0.0        0.574075        0.1444244081632653        0        
C2        C        0.03125        0.62963        0.1444244081632653        0        
C3        C        0.0        0.648148        0.1444244081632653        0        
C4        C        0.03125        0.592592        0.1444244081632653        0        
C1        C        0.0625        0.018519        0.1444244081632653        0        
C2        C        0.09375        0.074075        0.1444244081632653        0        
C3        C        0.0625        0.092592        0.1444244081632653        0        
C4        C        0.09375        0.037037        0.1444244081632653        0        
C1        C        0.0625        0.12963        0.1444244081632653        0        
C2        C        0.09375        0.185185        0.1444244081632653        0        
C3        C        0.0625        0.203703        0.1444244081632653        0        
C4        C        0.09375        0.148148        0.1444244081632653        0        
C1        C        0.0625        0.24074099999999998        0.1444244081632653        0        
C2        C        0.09375        0.296297        0.1444244081632653        0        
C3        C        0.0625        0.314815        0.1444244081632653        0        
C4        C        0.09375        0.259259        0.1444244081632653        0        
C1        C        0.0625        0.351852        0.1444244081632653        0        
C2        C        0.09375        0.407408        0.1444244081632653        0        
C3        C        0.0625        0.42592500000000005        0.1444244081632653        0        
C4        C        0.09375        0.37037        0.1444244081632653        0        
C1        C        0.0625        0.46296300000000007        0.1444244081632653        0        
C2        C        0.09375        0.518519        0.1444244081632653        0        
C3        C        0.0625        0.537037        0.1444244081632653        0        
C4        C        0.09375        0.481481        0.1444244081632653        0        
C1        C        0.0625        0.574075        0.1444244081632653        0        
C2        C        0.09375        0.62963        0.1444244081632653        0        
C3        C        0.0625        0.648148        0.1444244081632653        0        
C4        C        0.09375        0.592592        0.1444244081632653        0        
C_FG        C        0.125        0.018519        0.1444244081632653        0.2        
C2        C        0.15625        0.074075        0.1444244081632653        0        
C3        C        0.125        0.092592        0.1444244081632653        0        
C4        C        0.15625        0.037037        0.1444244081632653        0        
C1        C        0.125        0.12963        0.1444244081632653        0        
C2        C        0.15625        0.185185        0.1444244081632653        0        
C_FG        C        0.125        0.203703        0.1444244081632653        0.2        
C4        C        0.15625        0.148148        0.1444244081632653        0        
C1        C        0.125        0.24074099999999998        0.1444244081632653        0        
C2        C        0.15625        0.296297        0.1444244081632653        0        
C3        C        0.125        0.314815        0.1444244081632653        0        
C4        C        0.15625        0.259259        0.1444244081632653        0        
C_FG        C        0.125        0.351852        0.1444244081632653        0.2        
C2        C        0.15625        0.407408        0.1444244081632653        0        
C3        C        0.125        0.42592500000000005        0.1444244081632653        0        
C4        C        0.15625        0.37037        0.1444244081632653        0        
C1        C        0.125        0.46296300000000007        0.1444244081632653        0        
C2        C        0.15625        0.518519        0.1444244081632653        0        
C_FG        C        0.125        0.537037        0.1444244081632653        0.2        
C4        C        0.15625        0.481481        0.1444244081632653        0        
C1        C        0.125        0.574075        0.1444244081632653        0        
C2        C        0.15625        0.62963        0.1444244081632653        0        
C3        C        0.125        0.648148        0.1444244081632653        0        
C4        C        0.15625        0.592592        0.1444244081632653        0        
C1        C        0.1875        0.018519        0.1444244081632653        0        
C2        C        0.21875        0.074075        0.1444244081632653        0        
C3        C        0.1875        0.092592        0.1444244081632653        0        
C4        C        0.21875        0.037037        0.1444244081632653        0        
C1        C        0.1875        0.12963        0.1444244081632653        0        
C2        C        0.21875        0.185185        0.1444244081632653        0        
C3        C        0.1875        0.203703        0.1444244081632653        0        
C4        C        0.21875        0.148148        0.1444244081632653        0        
C1        C        0.1875        0.24074099999999998        0.1444244081632653        0        
C2        C        0.21875        0.296297        0.1444244081632653        0        
C3        C        0.1875        0.314815        0.1444244081632653        0        
C4        C        0.21875        0.259259        0.1444244081632653        0        
C1        C        0.1875        0.351852        0.1444244081632653        0        
C2        C        0.21875        0.407408        0.1444244081632653        0        
C3        C        0.1875        0.42592500000000005        0.1444244081632653        0        
C4        C        0.21875        0.37037        0.1444244081632653        0        
C1        C        0.1875        0.46296300000000007        0.1444244081632653        0        
C2        C        0.21875        0.518519        0.1444244081632653        0        
C3        C        0.1875        0.537037        0.1444244081632653        0        
C4        C        0.21875        0.481481        0.1444244081632653        0        
C1        C        0.1875        0.574075        0.1444244081632653        0        
C2        C        0.21875        0.62963        0.1444244081632653        0        
C3        C        0.1875        0.648148        0.1444244081632653        0        
C4        C        0.21875        0.592592        0.1444244081632653        0        
C_FG        C        0.25        0.018519        0.1444244081632653        0.2        
C2        C        0.28125        0.074075        0.1444244081632653        0        
C3        C        0.25        0.092592        0.1444244081632653        0        
C4        C        0.28125        0.037037        0.1444244081632653        0        
C1        C        0.25        0.12963        0.1444244081632653        0        
C2        C        0.28125        0.185185        0.1444244081632653        0        
C_FG        C        0.25        0.203703        0.1444244081632653        0.2        
C4        C        0.28125        0.148148        0.1444244081632653        0        
C1        C        0.25        0.24074099999999998        0.1444244081632653        0        
C2        C        0.28125        0.296297        0.1444244081632653        0        
C3        C        0.25        0.314815        0.1444244081632653        0        
C4        C        0.28125        0.259259        0.1444244081632653        0        
C_FG        C        0.25        0.351852        0.1444244081632653        0.2        
C2        C        0.28125        0.407408        0.1444244081632653        0        
C3        C        0.25        0.42592500000000005        0.1444244081632653        0        
C4        C        0.28125        0.37037        0.1444244081632653        0        
C1        C        0.25        0.46296300000000007        0.1444244081632653        0        
C2        C        0.28125        0.518519        0.1444244081632653        0        
C_FG        C        0.25        0.537037        0.1444244081632653        0.2        
C4        C        0.28125        0.481481        0.1444244081632653        0        
C1        C        0.25        0.574075        0.1444244081632653        0        
C2        C        0.28125        0.62963        0.1444244081632653        0        
C3        C        0.25        0.648148        0.1444244081632653        0        
C4        C        0.28125        0.592592        0.1444244081632653        0        
C1        C        0.3125        0.018519        0.1444244081632653        0        
C2        C        0.34375        0.074075        0.1444244081632653        0        
C3        C        0.3125        0.092592        0.1444244081632653        0        
C4        C        0.34375        0.037037        0.1444244081632653        0        
C1        C        0.3125        0.12963        0.1444244081632653        0        
C2        C        0.34375        0.185185        0.1444244081632653        0        
C3        C        0.3125        0.203703        0.1444244081632653        0        
C4        C        0.34375        0.148148        0.1444244081632653        0        
C1        C        0.3125        0.24074099999999998        0.1444244081632653        0        
C2        C        0.34375        0.296297        0.1444244081632653        0        
C3        C        0.3125        0.314815        0.1444244081632653        0        
C4        C        0.34375        0.259259        0.1444244081632653        0        
C1        C        0.3125        0.351852        0.1444244081632653        0        
C2        C        0.34375        0.407408        0.1444244081632653        0        
C3        C        0.3125        0.42592500000000005        0.1444244081632653        0        
C4        C        0.34375        0.37037        0.1444244081632653        0        
C1        C        0.3125        0.46296300000000007        0.1444244081632653        0        
C2        C        0.34375        0.518519        0.1444244081632653        0        
C3        C        0.3125        0.537037        0.1444244081632653        0        
C4        C        0.34375        0.481481        0.1444244081632653        0        
C1        C        0.3125        0.574075        0.1444244081632653        0        
C2        C        0.34375        0.62963        0.1444244081632653        0        
C3        C        0.3125        0.648148        0.1444244081632653        0        
C4        C        0.34375        0.592592        0.1444244081632653        0        
C_FG        C        0.375        0.018519        0.1444244081632653        0.2        
C2        C        0.40625        0.074075        0.1444244081632653        0        
C3        C        0.375        0.092592        0.1444244081632653        0        
C4        C        0.40625        0.037037        0.1444244081632653        0        
C1        C        0.375        0.12963        0.1444244081632653        0        
C2        C        0.40625        0.185185        0.1444244081632653        0        
C_FG        C        0.375        0.203703        0.1444244081632653        0.2        
C4        C        0.40625        0.148148        0.1444244081632653        0        
C1        C        0.375        0.24074099999999998        0.1444244081632653        0        
C2        C        0.40625        0.296297        0.1444244081632653        0        
C3        C        0.375        0.314815        0.1444244081632653        0        
C4        C        0.40625        0.259259        0.1444244081632653        0        
C_FG        C        0.375        0.351852        0.1444244081632653        0.2        
C2        C        0.40625        0.407408        0.1444244081632653        0        
C3        C        0.375        0.42592500000000005        0.1444244081632653        0        
C4        C        0.40625        0.37037        0.1444244081632653        0        
C1        C        0.375        0.46296300000000007        0.1444244081632653        0        
C2        C        0.40625        0.518519        0.1444244081632653        0        
C_FG        C        0.375        0.537037        0.1444244081632653        0.2        
C4        C        0.40625        0.481481        0.1444244081632653        0        
C1        C        0.375        0.574075        0.1444244081632653        0        
C2        C        0.40625        0.62963        0.1444244081632653        0        
C3        C        0.375        0.648148        0.1444244081632653        0        
C4        C        0.40625        0.592592        0.1444244081632653        0        
C1        C        0.4375        0.018519        0.1444244081632653        0        
C2        C        0.46875        0.074075        0.1444244081632653        0        
C3        C        0.4375        0.092592        0.1444244081632653        0        
C4        C        0.46875        0.037037        0.1444244081632653        0        
C1        C        0.4375        0.12963        0.1444244081632653        0        
C2        C        0.46875        0.185185        0.1444244081632653        0        
C3        C        0.4375        0.203703        0.1444244081632653        0        
C4        C        0.46875        0.148148        0.1444244081632653        0        
C1        C        0.4375        0.24074099999999998        0.1444244081632653        0        
C2        C        0.46875        0.296297        0.1444244081632653        0        
C3        C        0.4375        0.314815        0.1444244081632653        0        
C4        C        0.46875        0.259259        0.1444244081632653        0        
C1        C        0.4375        0.351852        0.1444244081632653        0        
C2        C        0.46875        0.407408        0.1444244081632653        0        
C3        C        0.4375        0.42592500000000005        0.1444244081632653        0        
C4        C        0.46875        0.37037        0.1444244081632653        0        
C1        C        0.4375        0.46296300000000007        0.1444244081632653        0        
C2        C        0.46875        0.518519        0.1444244081632653        0        
C3        C        0.4375        0.537037        0.1444244081632653        0        
C4        C        0.46875        0.481481        0.1444244081632653        0        
C1        C        0.4375        0.574075        0.1444244081632653        0        
C2        C        0.46875        0.62963        0.1444244081632653        0        
C3        C        0.4375        0.648148        0.1444244081632653        0        
C4        C        0.46875        0.592592        0.1444244081632653        0        
C_FG        C        0.5        0.018519        0.1444244081632653        0.2        
C2        C        0.53125        0.074075        0.1444244081632653        0        
C3        C        0.5        0.092592        0.1444244081632653        0        
C4        C        0.53125        0.037037        0.1444244081632653        0        
C1        C        0.5        0.12963        0.1444244081632653        0        
C2        C        0.53125        0.185185        0.1444244081632653        0        
C_FG        C        0.5        0.203703        0.1444244081632653        0.2        
C4        C        0.53125        0.148148        0.1444244081632653        0        
C1        C        0.5        0.24074099999999998        0.1444244081632653        0        
C2        C        0.53125        0.296297        0.1444244081632653        0        
C3        C        0.5        0.314815        0.1444244081632653        0        
C4        C        0.53125        0.259259        0.1444244081632653        0        
C_FG        C        0.5        0.351852        0.1444244081632653        0.2        
C2        C        0.53125        0.407408        0.1444244081632653        0        
C3        C        0.5        0.42592500000000005        0.1444244081632653        0        
C4        C        0.53125        0.37037        0.1444244081632653        0        
C1        C        0.5        0.46296300000000007        0.1444244081632653        0        
C2        C        0.53125        0.518519        0.1444244081632653        0        
C_FG        C        0.5        0.537037        0.1444244081632653        0.2        
C4        C        0.53125        0.481481        0.1444244081632653        0        
C1        C        0.5        0.574075        0.1444244081632653        0        
C2        C        0.53125        0.62963        0.1444244081632653        0        
C3        C        0.5        0.648148        0.1444244081632653        0        
C4        C        0.53125        0.592592        0.1444244081632653        0        
C1        C        0.5625        0.018519        0.1444244081632653        0        
C2        C        0.59375        0.074075        0.1444244081632653        0        
C3        C        0.5625        0.092592        0.1444244081632653        0        
C4        C        0.59375        0.037037        0.1444244081632653        0        
C1        C        0.5625        0.12963        0.1444244081632653        0        
C2        C        0.59375        0.185185        0.1444244081632653        0        
C3        C        0.5625        0.203703        0.1444244081632653        0        
C4        C        0.59375        0.148148        0.1444244081632653        0        
C1        C        0.5625        0.24074099999999998        0.1444244081632653        0        
C2        C        0.59375        0.296297        0.1444244081632653        0        
C3        C        0.5625        0.314815        0.1444244081632653        0        
C4        C        0.59375        0.259259        0.1444244081632653        0        
C1        C        0.5625        0.351852        0.1444244081632653        0        
C2        C        0.59375        0.407408        0.1444244081632653        0        
C3        C        0.5625        0.42592500000000005        0.1444244081632653        0        
C4        C        0.59375        0.37037        0.1444244081632653        0        
C1        C        0.5625        0.46296300000000007        0.1444244081632653        0        
C2        C        0.59375        0.518519        0.1444244081632653        0        
C3        C        0.5625        0.537037        0.1444244081632653        0        
C4        C        0.59375        0.481481        0.1444244081632653        0        
C1        C        0.5625        0.574075        0.1444244081632653        0        
C2        C        0.59375        0.62963        0.1444244081632653        0        
C3        C        0.5625        0.648148        0.1444244081632653        0        
C4        C        0.59375        0.592592        0.1444244081632653        0        
C_FG        C        0.625        0.018519        0.1444244081632653        0.2        
C2        C        0.65625        0.074075        0.1444244081632653        0        
C3        C        0.625        0.092592        0.1444244081632653        0        
C4        C        0.65625        0.037037        0.1444244081632653        0        
C1        C        0.625        0.12963        0.1444244081632653        0        
C2        C        0.65625        0.185185        0.1444244081632653        0        
C_FG        C        0.625        0.203703        0.1444244081632653        0.2        
C4        C        0.65625        0.148148        0.1444244081632653        0        
C1        C        0.625        0.24074099999999998        0.1444244081632653        0        
C2        C        0.65625        0.296297        0.1444244081632653        0        
C3        C        0.625        0.314815        0.1444244081632653        0        
C4        C        0.65625        0.259259        0.1444244081632653        0        
C_FG        C        0.625        0.351852        0.1444244081632653        0.2        
C2        C        0.65625        0.407408        0.1444244081632653        0        
C3        C        0.625        0.42592500000000005        0.1444244081632653        0        
C4        C        0.65625        0.37037        0.1444244081632653        0        
C1        C        0.625        0.46296300000000007        0.1444244081632653        0        
C2        C        0.65625        0.518519        0.1444244081632653        0        
C_FG        C        0.625        0.537037        0.1444244081632653        0.2        
C4        C        0.65625        0.481481        0.1444244081632653        0        
C1        C        0.625        0.574075        0.1444244081632653        0        
C2        C        0.65625        0.62963        0.1444244081632653        0        
C3        C        0.625        0.648148        0.1444244081632653        0        
C4        C        0.65625        0.592592        0.1444244081632653        0        
C1        C        0.6875        0.018519        0.1444244081632653        0        
C2        C        0.71875        0.074075        0.1444244081632653        0        
C3        C        0.6875        0.092592        0.1444244081632653        0        
C4        C        0.71875        0.037037        0.1444244081632653        0        
C1        C        0.6875        0.12963        0.1444244081632653        0        
C2        C        0.71875        0.185185        0.1444244081632653        0        
C3        C        0.6875        0.203703        0.1444244081632653        0        
C4        C        0.71875        0.148148        0.1444244081632653        0        
C1        C        0.6875        0.24074099999999998        0.1444244081632653        0        
C2        C        0.71875        0.296297        0.1444244081632653        0        
C3        C        0.6875        0.314815        0.1444244081632653        0        
C4        C        0.71875        0.259259        0.1444244081632653        0        
C1        C        0.6875        0.351852        0.1444244081632653        0        
C2        C        0.71875        0.407408        0.1444244081632653        0        
C3        C        0.6875        0.42592500000000005        0.1444244081632653        0        
C4        C        0.71875        0.37037        0.1444244081632653        0        
C1        C        0.6875        0.46296300000000007        0.1444244081632653        0        
C2        C        0.71875        0.518519        0.1444244081632653        0        
C3        C        0.6875        0.537037        0.1444244081632653        0        
C4        C        0.71875        0.481481        0.1444244081632653        0        
C1        C        0.6875        0.574075        0.1444244081632653        0        
C2        C        0.71875        0.62963        0.1444244081632653        0        
C3        C        0.6875        0.648148        0.1444244081632653        0        
C4        C        0.71875        0.592592        0.1444244081632653        0        
C_FG        C        0.75        0.018519        0.1444244081632653        0.2        
C2        C        0.78125        0.074075        0.1444244081632653        0        
C3        C        0.75        0.092592        0.1444244081632653        0        
C4        C        0.78125        0.037037        0.1444244081632653        0        
C1        C        0.75        0.12963        0.1444244081632653        0        
C2        C        0.78125        0.185185        0.1444244081632653        0        
C_FG        C        0.75        0.203703        0.1444244081632653        0.2        
C4        C        0.78125        0.148148        0.1444244081632653        0        
C1        C        0.75        0.24074099999999998        0.1444244081632653        0        
C2        C        0.78125        0.296297        0.1444244081632653        0        
C3        C        0.75        0.314815        0.1444244081632653        0        
C4        C        0.78125        0.259259        0.1444244081632653        0        
C_FG        C        0.75        0.351852        0.1444244081632653        0.2        
C2        C        0.78125        0.407408        0.1444244081632653        0        
C3        C        0.75        0.42592500000000005        0.1444244081632653        0        
C4        C        0.78125        0.37037        0.1444244081632653        0        
C1        C        0.75        0.46296300000000007        0.1444244081632653        0        
C2        C        0.78125        0.518519        0.1444244081632653        0        
C_FG        C        0.75        0.537037        0.1444244081632653        0.2        
C4        C        0.78125        0.481481        0.1444244081632653        0        
C1        C        0.75        0.574075        0.1444244081632653        0        
C2        C        0.78125        0.62963        0.1444244081632653        0        
C3        C        0.75        0.648148        0.1444244081632653        0        
C4        C        0.78125        0.592592        0.1444244081632653        0        
C1        C        0.8125        0.018519        0.1444244081632653        0        
C2        C        0.84375        0.074075        0.1444244081632653        0        
C3        C        0.8125        0.092592        0.1444244081632653        0        
C4        C        0.84375        0.037037        0.1444244081632653        0        
C1        C        0.8125        0.12963        0.1444244081632653        0        
C2        C        0.84375        0.185185        0.1444244081632653        0        
C3        C        0.8125        0.203703        0.1444244081632653        0        
C4        C        0.84375        0.148148        0.1444244081632653        0        
C1        C        0.8125        0.24074099999999998        0.1444244081632653        0        
C2        C        0.84375        0.296297        0.1444244081632653        0        
C3        C        0.8125        0.314815        0.1444244081632653        0        
C4        C        0.84375        0.259259        0.1444244081632653        0        
C1        C        0.8125        0.351852        0.1444244081632653        0        
C2        C        0.84375        0.407408        0.1444244081632653        0        
C3        C        0.8125        0.42592500000000005        0.1444244081632653        0        
C4        C        0.84375        0.37037        0.1444244081632653        0        
C1        C        0.8125        0.46296300000000007        0.1444244081632653        0        
C2        C        0.84375        0.518519        0.1444244081632653        0        
C3        C        0.8125        0.537037        0.1444244081632653        0        
C4        C        0.84375        0.481481        0.1444244081632653        0        
C1        C        0.8125        0.574075        0.1444244081632653        0        
C2        C        0.84375        0.62963        0.1444244081632653        0        
C3        C        0.8125        0.648148        0.1444244081632653        0        
C4        C        0.84375        0.592592        0.1444244081632653        0        
C_FG        C        0.875        0.018519        0.1444244081632653        0.2        
C2        C        0.9062500000000001        0.074075        0.1444244081632653        0        
C3        C        0.875        0.092592        0.1444244081632653        0        
C4        C        0.9062500000000001        0.037037        0.1444244081632653        0        
C1        C        0.875        0.12963        0.1444244081632653        0        
C2        C        0.9062500000000001        0.185185        0.1444244081632653        0        
C_FG        C        0.875        0.203703        0.1444244081632653        0.2        
C4        C        0.9062500000000001        0.148148        0.1444244081632653        0        
C1        C        0.875        0.24074099999999998        0.1444244081632653        0        
C2        C        0.9062500000000001        0.296297        0.1444244081632653        0        
C3        C        0.875        0.314815        0.1444244081632653        0        
C4        C        0.9062500000000001        0.259259        0.1444244081632653        0        
C_FG        C        0.875        0.351852        0.1444244081632653        0.2        
C2        C        0.9062500000000001        0.407408        0.1444244081632653        0        
C3        C        0.875        0.42592500000000005        0.1444244081632653        0        
C4        C        0.9062500000000001        0.37037        0.1444244081632653        0        
C1        C        0.875        0.46296300000000007        0.1444244081632653        0        
C2        C        0.9062500000000001        0.518519        0.1444244081632653        0        
C_FG        C        0.875        0.537037        0.1444244081632653        0.2        
C4        C        0.9062500000000001        0.481481        0.1444244081632653        0        
C1        C        0.875        0.574075        0.1444244081632653        0        
C2        C        0.9062500000000001        0.62963        0.1444244081632653        0        
C3        C        0.875        0.648148        0.1444244081632653        0        
C4        C        0.9062500000000001        0.592592        0.1444244081632653        0        
C1        C        0.9375        0.018519        0.1444244081632653        0        
C2        C        0.9687500000000001        0.074075        0.1444244081632653        0        
C3        C        0.9375        0.092592        0.1444244081632653        0        
C4        C        0.9687500000000001        0.037037        0.1444244081632653        0        
C1        C        0.9375        0.12963        0.1444244081632653        0        
C2        C        0.9687500000000001        0.185185        0.1444244081632653        0        
C3        C        0.9375        0.203703        0.1444244081632653        0        
C4        C        0.9687500000000001        0.148148        0.1444244081632653        0        
C1        C        0.9375        0.24074099999999998        0.1444244081632653        0        
C2        C        0.9687500000000001        0.296297        0.1444244081632653        0        
C3        C        0.9375        0.314815        0.1444244081632653        0        
C4        C        0.9687500000000001        0.259259        0.1444244081632653        0        
C1        C        0.9375        0.351852        0.1444244081632653        0        
C2        C        0.9687500000000001        0.407408        0.1444244081632653        0        
C3        C        0.9375        0.42592500000000005        0.1444244081632653        0        
C4        C        0.9687500000000001        0.37037        0.1444244081632653        0        
C1        C        0.9375        0.46296300000000007        0.1444244081632653        0        
C2        C        0.9687500000000001        0.518519        0.1444244081632653        0        
C3        C        0.9375        0.537037        0.1444244081632653        0        
C4        C        0.9687500000000001        0.481481        0.1444244081632653        0        
C1        C        0.9375        0.574075        0.1444244081632653        0        
C2        C        0.9687500000000001        0.62963        0.1444244081632653        0        
C3        C        0.9375        0.648148        0.1444244081632653        0        
C4        C        0.9687500000000001        0.592592        0.1444244081632653        0        
C_FG        C        0.0        0.685186        0.1444244081632653        0.2        
C1        C        0.0625        0.685186        0.1444244081632653        0        
C_FG        C        0.125        0.685186        0.1444244081632653        0.2        
C1        C        0.1875        0.685186        0.1444244081632653        0        
C_FG        C        0.25        0.685186        0.1444244081632653        0.2        
C1        C        0.3125        0.685186        0.1444244081632653        0        
C_FG        C        0.375        0.685186        0.1444244081632653        0.2        
C1        C        0.4375        0.685186        0.1444244081632653        0        
C_FG        C        0.5        0.685186        0.1444244081632653        0.2        
C1        C        0.5625        0.685186        0.1444244081632653        0        
C_FG        C        0.625        0.685186        0.1444244081632653        0.2        
C1        C        0.6875        0.685186        0.1444244081632653        0        
C_FG        C        0.75        0.685186        0.1444244081632653        0.2        
C1        C        0.8125        0.685186        0.1444244081632653        0        
C_FG        C        0.875        0.685186        0.1444244081632653        0.2        
C1        C        0.9375        0.685186        0.1444244081632653        0        
C2        C        0.03125        0.740741        0.1444244081632653        0        
C2        C        0.09375        0.740741        0.1444244081632653        0        
C2        C        0.15625        0.740741        0.1444244081632653        0        
C2        C        0.21875        0.740741        0.1444244081632653        0        
C2        C        0.28125        0.740741        0.1444244081632653        0        
C2        C        0.34375        0.740741        0.1444244081632653        0        
C2        C        0.40625        0.740741        0.1444244081632653        0        
C2        C        0.46875        0.740741        0.1444244081632653        0        
C2        C        0.53125        0.740741        0.1444244081632653        0        
C2        C        0.59375        0.740741        0.1444244081632653        0        
C2        C        0.65625        0.740741        0.1444244081632653        0        
C2        C        0.71875        0.740741        0.1444244081632653        0        
C2        C        0.78125        0.740741        0.1444244081632653        0        
C2        C        0.84375        0.740741        0.1444244081632653        0        
C2        C        0.9062500000000001        0.740741        0.1444244081632653        0        
C2        C        0.9687500000000001        0.740741        0.1444244081632653        0        
C3        C        0.0        0.759259        0.1444244081632653        0        
C3        C        0.0625        0.759259        0.1444244081632653        0        
C3        C        0.125        0.759259        0.1444244081632653        0        
C3        C        0.1875        0.759259        0.1444244081632653        0        
C3        C        0.25        0.759259        0.1444244081632653        0        
C3        C        0.3125        0.759259        0.1444244081632653        0        
C3        C        0.375        0.759259        0.1444244081632653        0        
C3        C        0.4375        0.759259        0.1444244081632653        0        
C3        C        0.5        0.759259        0.1444244081632653        0        
C3        C        0.5625        0.759259        0.1444244081632653        0        
C3        C        0.625        0.759259        0.1444244081632653        0        
C3        C        0.6875        0.759259        0.1444244081632653        0        
C3        C        0.75        0.759259        0.1444244081632653        0        
C3        C        0.8125        0.759259        0.1444244081632653        0        
C3        C        0.875        0.759259        0.1444244081632653        0        
C3        C        0.9375        0.759259        0.1444244081632653        0        
C4        C        0.03125        0.703703        0.1444244081632653        0        
C4        C        0.09375        0.703703        0.1444244081632653        0        
C4        C        0.15625        0.703703        0.1444244081632653        0        
C4        C        0.21875        0.703703        0.1444244081632653        0        
C4        C        0.28125        0.703703        0.1444244081632653        0        
C4        C        0.34375        0.703703        0.1444244081632653        0        
C4        C        0.40625        0.703703        0.1444244081632653        0        
C4        C        0.46875        0.703703        0.1444244081632653        0        
C4        C        0.53125        0.703703        0.1444244081632653        0        
C4        C        0.59375        0.703703        0.1444244081632653        0        
C4        C        0.65625        0.703703        0.1444244081632653        0        
C4        C        0.71875        0.703703        0.1444244081632653        0        
C4        C        0.78125        0.703703        0.1444244081632653        0        
C4        C        0.84375        0.703703        0.1444244081632653        0        
C4        C        0.9062500000000001        0.703703        0.1444244081632653        0        
C4        C        0.9687500000000001        0.703703        0.1444244081632653        0        
C1        C        0.0        0.796297        0.1444244081632653        0        
C1        C        0.0625        0.796297        0.1444244081632653        0        
C1        C        0.125        0.796297        0.1444244081632653        0        
C1        C        0.1875        0.796297        0.1444244081632653        0        
C1        C        0.25        0.796297        0.1444244081632653        0        
C1        C        0.3125        0.796297        0.1444244081632653        0        
C1        C        0.375        0.796297        0.1444244081632653        0        
C1        C        0.4375        0.796297        0.1444244081632653        0        
C1        C        0.5        0.796297        0.1444244081632653        0        
C1        C        0.5625        0.796297        0.1444244081632653        0        
C1        C        0.625        0.796297        0.1444244081632653        0        
C1        C        0.6875        0.796297        0.1444244081632653        0        
C1        C        0.75        0.796297        0.1444244081632653        0        
C1        C        0.8125        0.796297        0.1444244081632653        0        
C1        C        0.875        0.796297        0.1444244081632653        0        
C1        C        0.9375        0.796297        0.1444244081632653        0        
C2        C        0.03125        0.851852        0.1444244081632653        0        
C2        C        0.09375        0.851852        0.1444244081632653        0        
C2        C        0.15625        0.851852        0.1444244081632653        0        
C2        C        0.21875        0.851852        0.1444244081632653        0        
C2        C        0.28125        0.851852        0.1444244081632653        0        
C2        C        0.34375        0.851852        0.1444244081632653        0        
C2        C        0.40625        0.851852        0.1444244081632653        0        
C2        C        0.46875        0.851852        0.1444244081632653        0        
C2        C        0.53125        0.851852        0.1444244081632653        0        
C2        C        0.59375        0.851852        0.1444244081632653        0        
C2        C        0.65625        0.851852        0.1444244081632653        0        
C2        C        0.71875        0.851852        0.1444244081632653        0        
C2        C        0.78125        0.851852        0.1444244081632653        0        
C2        C        0.84375        0.851852        0.1444244081632653        0        
C2        C        0.9062500000000001        0.851852        0.1444244081632653        0        
C2        C        0.9687500000000001        0.851852        0.1444244081632653        0        
C_FG        C        0.0        0.87037        0.1444244081632653        0.2        
C3        C        0.0625        0.87037        0.1444244081632653        0        
C_FG        C        0.125        0.87037        0.1444244081632653        0.2        
C3        C        0.1875        0.87037        0.1444244081632653        0        
C_FG        C        0.25        0.87037        0.1444244081632653        0.2        
C3        C        0.3125        0.87037        0.1444244081632653        0        
C_FG        C        0.375        0.87037        0.1444244081632653        0.2        
C3        C        0.4375        0.87037        0.1444244081632653        0        
C_FG        C        0.5        0.87037        0.1444244081632653        0.2        
C3        C        0.5625        0.87037        0.1444244081632653        0        
C_FG        C        0.625        0.87037        0.1444244081632653        0.2        
C3        C        0.6875        0.87037        0.1444244081632653        0        
C_FG        C        0.75        0.87037        0.1444244081632653        0.2        
C3        C        0.8125        0.87037        0.1444244081632653        0        
C_FG        C        0.875        0.87037        0.1444244081632653        0.2        
C3        C        0.9375        0.87037        0.1444244081632653        0        
C4        C        0.03125        0.814814        0.1444244081632653        0        
C4        C        0.09375        0.814814        0.1444244081632653        0        
C4        C        0.15625        0.814814        0.1444244081632653        0        
C4        C        0.21875        0.814814        0.1444244081632653        0        
C4        C        0.28125        0.814814        0.1444244081632653        0        
C4        C        0.34375        0.814814        0.1444244081632653        0        
C4        C        0.40625        0.814814        0.1444244081632653        0        
C4        C        0.46875        0.814814        0.1444244081632653        0        
C4        C        0.53125        0.814814        0.1444244081632653        0        
C4        C        0.59375        0.814814        0.1444244081632653        0        
C4        C        0.65625        0.814814        0.1444244081632653        0        
C4        C        0.71875        0.814814        0.1444244081632653        0        
C4        C        0.78125        0.814814        0.1444244081632653        0        
C4        C        0.84375        0.814814        0.1444244081632653        0        
C4        C        0.9062500000000001        0.814814        0.1444244081632653        0        
C4        C        0.9687500000000001        0.814814        0.1444244081632653        0        
C1        C        0.0        0.907408        0.1444244081632653        0        
C1        C        0.0625        0.907408        0.1444244081632653        0        
C1        C        0.125        0.907408        0.1444244081632653        0        
C1        C        0.1875        0.907408        0.1444244081632653        0        
C1        C        0.25        0.907408        0.1444244081632653        0        
C1        C        0.3125        0.907408        0.1444244081632653        0        
C1        C        0.375        0.907408        0.1444244081632653        0        
C1        C        0.4375        0.907408        0.1444244081632653        0        
C1        C        0.5        0.907408        0.1444244081632653        0        
C1        C        0.5625        0.907408        0.1444244081632653        0        
C1        C        0.625        0.907408        0.1444244081632653        0        
C1        C        0.6875        0.907408        0.1444244081632653        0        
C1        C        0.75        0.907408        0.1444244081632653        0        
C1        C        0.8125        0.907408        0.1444244081632653        0        
C1        C        0.875        0.907408        0.1444244081632653        0        
C1        C        0.9375        0.907408        0.1444244081632653        0        
C2        C        0.03125        0.962963        0.1444244081632653        0        
C2        C        0.09375        0.962963        0.1444244081632653        0        
C2        C        0.15625        0.962963        0.1444244081632653        0        
C2        C        0.21875        0.962963        0.1444244081632653        0        
C2        C        0.28125        0.962963        0.1444244081632653        0        
C2        C        0.34375        0.962963        0.1444244081632653        0        
C2        C        0.40625        0.962963        0.1444244081632653        0        
C2        C        0.46875        0.962963        0.1444244081632653        0        
C2        C        0.53125        0.962963        0.1444244081632653        0        
C2        C        0.59375        0.962963        0.1444244081632653        0        
C2        C        0.65625        0.962963        0.1444244081632653        0        
C2        C        0.71875        0.962963        0.1444244081632653        0        
C2        C        0.78125        0.962963        0.1444244081632653        0        
C2        C        0.84375        0.962963        0.1444244081632653        0        
C2        C        0.9062500000000001        0.962963        0.1444244081632653        0        
C2        C        0.9687500000000001        0.962963        0.1444244081632653        0        
C3        C        0.0        0.9814809999999999        0.1444244081632653        0        
C3        C        0.0625        0.9814809999999999        0.1444244081632653        0        
C3        C        0.125        0.9814809999999999        0.1444244081632653        0        
C3        C        0.1875        0.9814809999999999        0.1444244081632653        0        
C3        C        0.25        0.9814809999999999        0.1444244081632653        0        
C3        C        0.3125        0.9814809999999999        0.1444244081632653        0        
C3        C        0.375        0.9814809999999999        0.1444244081632653        0        
C3        C        0.4375        0.9814809999999999        0.1444244081632653        0        
C3        C        0.5        0.9814809999999999        0.1444244081632653        0        
C3        C        0.5625        0.9814809999999999        0.1444244081632653        0        
C3        C        0.625        0.9814809999999999        0.1444244081632653        0        
C3        C        0.6875        0.9814809999999999        0.1444244081632653        0        
C3        C        0.75        0.9814809999999999        0.1444244081632653        0        
C3        C        0.8125        0.9814809999999999        0.1444244081632653        0        
C3        C        0.875        0.9814809999999999        0.1444244081632653        0        
C3        C        0.9375        0.9814809999999999        0.1444244081632653        0        
C4        C        0.03125        0.925925        0.1444244081632653        0        
C4        C        0.09375        0.925925        0.1444244081632653        0        
C4        C        0.15625        0.925925        0.1444244081632653        0        
C4        C        0.21875        0.925925        0.1444244081632653        0        
C4        C        0.28125        0.925925        0.1444244081632653        0        
C4        C        0.34375        0.925925        0.1444244081632653        0        
C4        C        0.40625        0.925925        0.1444244081632653        0        
C4        C        0.46875        0.925925        0.1444244081632653        0        
C4        C        0.53125        0.925925        0.1444244081632653        0        
C4        C        0.59375        0.925925        0.1444244081632653        0        
C4        C        0.65625        0.925925        0.1444244081632653        0        
C4        C        0.71875        0.925925        0.1444244081632653        0        
C4        C        0.78125        0.925925        0.1444244081632653        0        
C4        C        0.84375        0.925925        0.1444244081632653        0        
C4        C        0.9062500000000001        0.925925        0.1444244081632653        0        
C4        C        0.9687500000000001        0.925925        0.1444244081632653        0        
C_FG        C        0.0        0.018519        0.41789340816326526        0.2        
C2        C        0.03125        0.074075        0.41789340816326526        0        
C3        C        0.0        0.092592        0.41789340816326526        0        
C4        C        0.03125        0.037037        0.41789340816326526        0        
C1        C        0.0        0.12963        0.41789340816326526        0        
C2        C        0.03125        0.185185        0.41789340816326526        0        
C_FG        C        0.0        0.203703        0.41789340816326526        0.2        
C4        C        0.03125        0.148148        0.41789340816326526        0        
C1        C        0.0        0.24074099999999998        0.41789340816326526        0        
C2        C        0.03125        0.296297        0.41789340816326526        0        
C3        C        0.0        0.314815        0.41789340816326526        0        
C4        C        0.03125        0.259259        0.41789340816326526        0        
C_FG        C        0.0        0.351852        0.41789340816326526        0.2        
C2        C        0.03125        0.407408        0.41789340816326526        0        
C3        C        0.0        0.42592500000000005        0.41789340816326526        0        
C4        C        0.03125        0.37037        0.41789340816326526        0        
C1        C        0.0        0.46296300000000007        0.41789340816326526        0        
C2        C        0.03125        0.518519        0.41789340816326526        0        
C_FG        C        0.0        0.537037        0.41789340816326526        0.2        
C4        C        0.03125        0.481481        0.41789340816326526        0        
C1        C        0.0        0.574075        0.41789340816326526        0        
C2        C        0.03125        0.62963        0.41789340816326526        0        
C3        C        0.0        0.648148        0.41789340816326526        0        
C4        C        0.03125        0.592592        0.41789340816326526        0        
C1        C        0.0625        0.018519        0.41789340816326526        0        
C2        C        0.09375        0.074075        0.41789340816326526        0        
C3        C        0.0625        0.092592        0.41789340816326526        0        
C4        C        0.09375        0.037037        0.41789340816326526        0        
C1        C        0.0625        0.12963        0.41789340816326526        0        
C2        C        0.09375        0.185185        0.41789340816326526        0        
C3        C        0.0625        0.203703        0.41789340816326526        0        
C4        C        0.09375        0.148148        0.41789340816326526        0        
C1        C        0.0625        0.24074099999999998        0.41789340816326526        0        
C2        C        0.09375        0.296297        0.41789340816326526        0        
C3        C        0.0625        0.314815        0.41789340816326526        0        
C4        C        0.09375        0.259259        0.41789340816326526        0        
C1        C        0.0625        0.351852        0.41789340816326526        0        
C2        C        0.09375        0.407408        0.41789340816326526        0        
C3        C        0.0625        0.42592500000000005        0.41789340816326526        0        
C4        C        0.09375        0.37037        0.41789340816326526        0        
C1        C        0.0625        0.46296300000000007        0.41789340816326526        0        
C2        C        0.09375        0.518519        0.41789340816326526        0        
C3        C        0.0625        0.537037        0.41789340816326526        0        
C4        C        0.09375        0.481481        0.41789340816326526        0        
C1        C        0.0625        0.574075        0.41789340816326526        0        
C2        C        0.09375        0.62963        0.41789340816326526        0        
C3        C        0.0625        0.648148        0.41789340816326526        0        
C4        C        0.09375        0.592592        0.41789340816326526        0        
C_FG        C        0.125        0.018519        0.41789340816326526        0.2        
C2        C        0.15625        0.074075        0.41789340816326526        0        
C3        C        0.125        0.092592        0.41789340816326526        0        
C4        C        0.15625        0.037037        0.41789340816326526        0        
C1        C        0.125        0.12963        0.41789340816326526        0        
C2        C        0.15625        0.185185        0.41789340816326526        0        
C_FG        C        0.125        0.203703        0.41789340816326526        0.2        
C4        C        0.15625        0.148148        0.41789340816326526        0        
C1        C        0.125        0.24074099999999998        0.41789340816326526        0        
C2        C        0.15625        0.296297        0.41789340816326526        0        
C3        C        0.125        0.314815        0.41789340816326526        0        
C4        C        0.15625        0.259259        0.41789340816326526        0        
C_FG        C        0.125        0.351852        0.41789340816326526        0.2        
C2        C        0.15625        0.407408        0.41789340816326526        0        
C3        C        0.125        0.42592500000000005        0.41789340816326526        0        
C4        C        0.15625        0.37037        0.41789340816326526        0        
C1        C        0.125        0.46296300000000007        0.41789340816326526        0        
C2        C        0.15625        0.518519        0.41789340816326526        0        
C_FG        C        0.125        0.537037        0.41789340816326526        0.2        
C4        C        0.15625        0.481481        0.41789340816326526        0        
C1        C        0.125        0.574075        0.41789340816326526        0        
C2        C        0.15625        0.62963        0.41789340816326526        0        
C3        C        0.125        0.648148        0.41789340816326526        0        
C4        C        0.15625        0.592592        0.41789340816326526        0        
C1        C        0.1875        0.018519        0.41789340816326526        0        
C2        C        0.21875        0.074075        0.41789340816326526        0        
C3        C        0.1875        0.092592        0.41789340816326526        0        
C4        C        0.21875        0.037037        0.41789340816326526        0        
C1        C        0.1875        0.12963        0.41789340816326526        0        
C2        C        0.21875        0.185185        0.41789340816326526        0        
C3        C        0.1875        0.203703        0.41789340816326526        0        
C4        C        0.21875        0.148148        0.41789340816326526        0        
C1        C        0.1875        0.24074099999999998        0.41789340816326526        0        
C2        C        0.21875        0.296297        0.41789340816326526        0        
C3        C        0.1875        0.314815        0.41789340816326526        0        
C4        C        0.21875        0.259259        0.41789340816326526        0        
C1        C        0.1875        0.351852        0.41789340816326526        0        
C2        C        0.21875        0.407408        0.41789340816326526        0        
C3        C        0.1875        0.42592500000000005        0.41789340816326526        0        
C4        C        0.21875        0.37037        0.41789340816326526        0        
C1        C        0.1875        0.46296300000000007        0.41789340816326526        0        
C2        C        0.21875        0.518519        0.41789340816326526        0        
C3        C        0.1875        0.537037        0.41789340816326526        0        
C4        C        0.21875        0.481481        0.41789340816326526        0        
C1        C        0.1875        0.574075        0.41789340816326526        0        
C2        C        0.21875        0.62963        0.41789340816326526        0        
C3        C        0.1875        0.648148        0.41789340816326526        0        
C4        C        0.21875        0.592592        0.41789340816326526        0        
C_FG        C        0.25        0.018519        0.41789340816326526        0.2        
C2        C        0.28125        0.074075        0.41789340816326526        0        
C3        C        0.25        0.092592        0.41789340816326526        0        
C4        C        0.28125        0.037037        0.41789340816326526        0        
C1        C        0.25        0.12963        0.41789340816326526        0        
C2        C        0.28125        0.185185        0.41789340816326526        0        
C_FG        C        0.25        0.203703        0.41789340816326526        0.2        
C4        C        0.28125        0.148148        0.41789340816326526        0        
C1        C        0.25        0.24074099999999998        0.41789340816326526        0        
C2        C        0.28125        0.296297        0.41789340816326526        0        
C3        C        0.25        0.314815        0.41789340816326526        0        
C4        C        0.28125        0.259259        0.41789340816326526        0        
C_FG        C        0.25        0.351852        0.41789340816326526        0.2        
C2        C        0.28125        0.407408        0.41789340816326526        0        
C3        C        0.25        0.42592500000000005        0.41789340816326526        0        
C4        C        0.28125        0.37037        0.41789340816326526        0        
C1        C        0.25        0.46296300000000007        0.41789340816326526        0        
C2        C        0.28125        0.518519        0.41789340816326526        0        
C_FG        C        0.25        0.537037        0.41789340816326526        0.2        
C4        C        0.28125        0.481481        0.41789340816326526        0        
C1        C        0.25        0.574075        0.41789340816326526        0        
C2        C        0.28125        0.62963        0.41789340816326526        0        
C3        C        0.25        0.648148        0.41789340816326526        0        
C4        C        0.28125        0.592592        0.41789340816326526        0        
C1        C        0.3125        0.018519        0.41789340816326526        0        
C2        C        0.34375        0.074075        0.41789340816326526        0        
C3        C        0.3125        0.092592        0.41789340816326526        0        
C4        C        0.34375        0.037037        0.41789340816326526        0        
C1        C        0.3125        0.12963        0.41789340816326526        0        
C2        C        0.34375        0.185185        0.41789340816326526        0        
C3        C        0.3125        0.203703        0.41789340816326526        0        
C4        C        0.34375        0.148148        0.41789340816326526        0        
C1        C        0.3125        0.24074099999999998        0.41789340816326526        0        
C2        C        0.34375        0.296297        0.41789340816326526        0        
C3        C        0.3125        0.314815        0.41789340816326526        0        
C4        C        0.34375        0.259259        0.41789340816326526        0        
C1        C        0.3125        0.351852        0.41789340816326526        0        
C2        C        0.34375        0.407408        0.41789340816326526        0        
C3        C        0.3125        0.42592500000000005        0.41789340816326526        0        
C4        C        0.34375        0.37037        0.41789340816326526        0        
C1        C        0.3125        0.46296300000000007        0.41789340816326526        0        
C2        C        0.34375        0.518519        0.41789340816326526        0        
C3        C        0.3125        0.537037        0.41789340816326526        0        
C4        C        0.34375        0.481481        0.41789340816326526        0        
C1        C        0.3125        0.574075        0.41789340816326526        0        
C2        C        0.34375        0.62963        0.41789340816326526        0        
C3        C        0.3125        0.648148        0.41789340816326526        0        
C4        C        0.34375        0.592592        0.41789340816326526        0        
C_FG        C        0.375        0.018519        0.41789340816326526        0.2        
C2        C        0.40625        0.074075        0.41789340816326526        0        
C3        C        0.375        0.092592        0.41789340816326526        0        
C4        C        0.40625        0.037037        0.41789340816326526        0        
C1        C        0.375        0.12963        0.41789340816326526        0        
C2        C        0.40625        0.185185        0.41789340816326526        0        
C_FG        C        0.375        0.203703        0.41789340816326526        0.2        
C4        C        0.40625        0.148148        0.41789340816326526        0        
C1        C        0.375        0.24074099999999998        0.41789340816326526        0        
C2        C        0.40625        0.296297        0.41789340816326526        0        
C3        C        0.375        0.314815        0.41789340816326526        0        
C4        C        0.40625        0.259259        0.41789340816326526        0        
C_FG        C        0.375        0.351852        0.41789340816326526        0.2        
C2        C        0.40625        0.407408        0.41789340816326526        0        
C3        C        0.375        0.42592500000000005        0.41789340816326526        0        
C4        C        0.40625        0.37037        0.41789340816326526        0        
C1        C        0.375        0.46296300000000007        0.41789340816326526        0        
C2        C        0.40625        0.518519        0.41789340816326526        0        
C_FG        C        0.375        0.537037        0.41789340816326526        0.2        
C4        C        0.40625        0.481481        0.41789340816326526        0        
C1        C        0.375        0.574075        0.41789340816326526        0        
C2        C        0.40625        0.62963        0.41789340816326526        0        
C3        C        0.375        0.648148        0.41789340816326526        0        
C4        C        0.40625        0.592592        0.41789340816326526        0        
C1        C        0.4375        0.018519        0.41789340816326526        0        
C2        C        0.46875        0.074075        0.41789340816326526        0        
C3        C        0.4375        0.092592        0.41789340816326526        0        
C4        C        0.46875        0.037037        0.41789340816326526        0        
C1        C        0.4375        0.12963        0.41789340816326526        0        
C2        C        0.46875        0.185185        0.41789340816326526        0        
C3        C        0.4375        0.203703        0.41789340816326526        0        
C4        C        0.46875        0.148148        0.41789340816326526        0        
C1        C        0.4375        0.24074099999999998        0.41789340816326526        0        
C2        C        0.46875        0.296297        0.41789340816326526        0        
C3        C        0.4375        0.314815        0.41789340816326526        0        
C4        C        0.46875        0.259259        0.41789340816326526        0        
C1        C        0.4375        0.351852        0.41789340816326526        0        
C2        C        0.46875        0.407408        0.41789340816326526        0        
C3        C        0.4375        0.42592500000000005        0.41789340816326526        0        
C4        C        0.46875        0.37037        0.41789340816326526        0        
C1        C        0.4375        0.46296300000000007        0.41789340816326526        0        
C2        C        0.46875        0.518519        0.41789340816326526        0        
C3        C        0.4375        0.537037        0.41789340816326526        0        
C4        C        0.46875        0.481481        0.41789340816326526        0        
C1        C        0.4375        0.574075        0.41789340816326526        0        
C2        C        0.46875        0.62963        0.41789340816326526        0        
C3        C        0.4375        0.648148        0.41789340816326526        0        
C4        C        0.46875        0.592592        0.41789340816326526        0        
C_FG        C        0.5        0.018519        0.41789340816326526        0.2        
C2        C        0.53125        0.074075        0.41789340816326526        0        
C3        C        0.5        0.092592        0.41789340816326526        0        
C4        C        0.53125        0.037037        0.41789340816326526        0        
C1        C        0.5        0.12963        0.41789340816326526        0        
C2        C        0.53125        0.185185        0.41789340816326526        0        
C_FG        C        0.5        0.203703        0.41789340816326526        0.2        
C4        C        0.53125        0.148148        0.41789340816326526        0        
C1        C        0.5        0.24074099999999998        0.41789340816326526        0        
C2        C        0.53125        0.296297        0.41789340816326526        0        
C3        C        0.5        0.314815        0.41789340816326526        0        
C4        C        0.53125        0.259259        0.41789340816326526        0        
C_FG        C        0.5        0.351852        0.41789340816326526        0.2        
C2        C        0.53125        0.407408        0.41789340816326526        0        
C3        C        0.5        0.42592500000000005        0.41789340816326526        0        
C4        C        0.53125        0.37037        0.41789340816326526        0        
C1        C        0.5        0.46296300000000007        0.41789340816326526        0        
C2        C        0.53125        0.518519        0.41789340816326526        0        
C_FG        C        0.5        0.537037        0.41789340816326526        0.2        
C4        C        0.53125        0.481481        0.41789340816326526        0        
C1        C        0.5        0.574075        0.41789340816326526        0        
C2        C        0.53125        0.62963        0.41789340816326526        0        
C3        C        0.5        0.648148        0.41789340816326526        0        
C4        C        0.53125        0.592592        0.41789340816326526        0        
C1        C        0.5625        0.018519        0.41789340816326526        0        
C2        C        0.59375        0.074075        0.41789340816326526        0        
C3        C        0.5625        0.092592        0.41789340816326526        0        
C4        C        0.59375        0.037037        0.41789340816326526        0        
C1        C        0.5625        0.12963        0.41789340816326526        0        
C2        C        0.59375        0.185185        0.41789340816326526        0        
C3        C        0.5625        0.203703        0.41789340816326526        0        
C4        C        0.59375        0.148148        0.41789340816326526        0        
C1        C        0.5625        0.24074099999999998        0.41789340816326526        0        
C2        C        0.59375        0.296297        0.41789340816326526        0        
C3        C        0.5625        0.314815        0.41789340816326526        0        
C4        C        0.59375        0.259259        0.41789340816326526        0        
C1        C        0.5625        0.351852        0.41789340816326526        0        
C2        C        0.59375        0.407408        0.41789340816326526        0        
C3        C        0.5625        0.42592500000000005        0.41789340816326526        0        
C4        C        0.59375        0.37037        0.41789340816326526        0        
C1        C        0.5625        0.46296300000000007        0.41789340816326526        0        
C2        C        0.59375        0.518519        0.41789340816326526        0        
C3        C        0.5625        0.537037        0.41789340816326526        0        
C4        C        0.59375        0.481481        0.41789340816326526        0        
C1        C        0.5625        0.574075        0.41789340816326526        0        
C2        C        0.59375        0.62963        0.41789340816326526        0        
C3        C        0.5625        0.648148        0.41789340816326526        0        
C4        C        0.59375        0.592592        0.41789340816326526        0        
C_FG        C        0.625        0.018519        0.41789340816326526        0.2        
C2        C        0.65625        0.074075        0.41789340816326526        0        
C3        C        0.625        0.092592        0.41789340816326526        0        
C4        C        0.65625        0.037037        0.41789340816326526        0        
C1        C        0.625        0.12963        0.41789340816326526        0        
C2        C        0.65625        0.185185        0.41789340816326526        0        
C_FG        C        0.625        0.203703        0.41789340816326526        0.2        
C4        C        0.65625        0.148148        0.41789340816326526        0        
C1        C        0.625        0.24074099999999998        0.41789340816326526        0        
C2        C        0.65625        0.296297        0.41789340816326526        0        
C3        C        0.625        0.314815        0.41789340816326526        0        
C4        C        0.65625        0.259259        0.41789340816326526        0        
C_FG        C        0.625        0.351852        0.41789340816326526        0.2        
C2        C        0.65625        0.407408        0.41789340816326526        0        
C3        C        0.625        0.42592500000000005        0.41789340816326526        0        
C4        C        0.65625        0.37037        0.41789340816326526        0        
C1        C        0.625        0.46296300000000007        0.41789340816326526        0        
C2        C        0.65625        0.518519        0.41789340816326526        0        
C_FG        C        0.625        0.537037        0.41789340816326526        0.2        
C4        C        0.65625        0.481481        0.41789340816326526        0        
C1        C        0.625        0.574075        0.41789340816326526        0        
C2        C        0.65625        0.62963        0.41789340816326526        0        
C3        C        0.625        0.648148        0.41789340816326526        0        
C4        C        0.65625        0.592592        0.41789340816326526        0        
C1        C        0.6875        0.018519        0.41789340816326526        0        
C2        C        0.71875        0.074075        0.41789340816326526        0        
C3        C        0.6875        0.092592        0.41789340816326526        0        
C4        C        0.71875        0.037037        0.41789340816326526        0        
C1        C        0.6875        0.12963        0.41789340816326526        0        
C2        C        0.71875        0.185185        0.41789340816326526        0        
C3        C        0.6875        0.203703        0.41789340816326526        0        
C4        C        0.71875        0.148148        0.41789340816326526        0        
C1        C        0.6875        0.24074099999999998        0.41789340816326526        0        
C2        C        0.71875        0.296297        0.41789340816326526        0        
C3        C        0.6875        0.314815        0.41789340816326526        0        
C4        C        0.71875        0.259259        0.41789340816326526        0        
C1        C        0.6875        0.351852        0.41789340816326526        0        
C2        C        0.71875        0.407408        0.41789340816326526        0        
C3        C        0.6875        0.42592500000000005        0.41789340816326526        0        
C4        C        0.71875        0.37037        0.41789340816326526        0        
C1        C        0.6875        0.46296300000000007        0.41789340816326526        0        
C2        C        0.71875        0.518519        0.41789340816326526        0        
C3        C        0.6875        0.537037        0.41789340816326526        0        
C4        C        0.71875        0.481481        0.41789340816326526        0        
C1        C        0.6875        0.574075        0.41789340816326526        0        
C2        C        0.71875        0.62963        0.41789340816326526        0        
C3        C        0.6875        0.648148        0.41789340816326526        0        
C4        C        0.71875        0.592592        0.41789340816326526        0        
C_FG        C        0.75        0.018519        0.41789340816326526        0.2        
C2        C        0.78125        0.074075        0.41789340816326526        0        
C3        C        0.75        0.092592        0.41789340816326526        0        
C4        C        0.78125        0.037037        0.41789340816326526        0        
C1        C        0.75        0.12963        0.41789340816326526        0        
C2        C        0.78125        0.185185        0.41789340816326526        0        
C_FG        C        0.75        0.203703        0.41789340816326526        0.2        
C4        C        0.78125        0.148148        0.41789340816326526        0        
C1        C        0.75        0.24074099999999998        0.41789340816326526        0        
C2        C        0.78125        0.296297        0.41789340816326526        0        
C3        C        0.75        0.314815        0.41789340816326526        0        
C4        C        0.78125        0.259259        0.41789340816326526        0        
C_FG        C        0.75        0.351852        0.41789340816326526        0.2        
C2        C        0.78125        0.407408        0.41789340816326526        0        
C3        C        0.75        0.42592500000000005        0.41789340816326526        0        
C4        C        0.78125        0.37037        0.41789340816326526        0        
C1        C        0.75        0.46296300000000007        0.41789340816326526        0        
C2        C        0.78125        0.518519        0.41789340816326526        0        
C_FG        C        0.75        0.537037        0.41789340816326526        0.2        
C4        C        0.78125        0.481481        0.41789340816326526        0        
C1        C        0.75        0.574075        0.41789340816326526        0        
C2        C        0.78125        0.62963        0.41789340816326526        0        
C3        C        0.75        0.648148        0.41789340816326526        0        
C4        C        0.78125        0.592592        0.41789340816326526        0        
C1        C        0.8125        0.018519        0.41789340816326526        0        
C2        C        0.84375        0.074075        0.41789340816326526        0        
C3        C        0.8125        0.092592        0.41789340816326526        0        
C4        C        0.84375        0.037037        0.41789340816326526        0        
C1        C        0.8125        0.12963        0.41789340816326526        0        
C2        C        0.84375        0.185185        0.41789340816326526        0        
C3        C        0.8125        0.203703        0.41789340816326526        0        
C4        C        0.84375        0.148148        0.41789340816326526        0        
C1        C        0.8125        0.24074099999999998        0.41789340816326526        0        
C2        C        0.84375        0.296297        0.41789340816326526        0        
C3        C        0.8125        0.314815        0.41789340816326526        0        
C4        C        0.84375        0.259259        0.41789340816326526        0        
C1        C        0.8125        0.351852        0.41789340816326526        0        
C2        C        0.84375        0.407408        0.41789340816326526        0        
C3        C        0.8125        0.42592500000000005        0.41789340816326526        0        
C4        C        0.84375        0.37037        0.41789340816326526        0        
C1        C        0.8125        0.46296300000000007        0.41789340816326526        0        
C2        C        0.84375        0.518519        0.41789340816326526        0        
C3        C        0.8125        0.537037        0.41789340816326526        0        
C4        C        0.84375        0.481481        0.41789340816326526        0        
C1        C        0.8125        0.574075        0.41789340816326526        0        
C2        C        0.84375        0.62963        0.41789340816326526        0        
C3        C        0.8125        0.648148        0.41789340816326526        0        
C4        C        0.84375        0.592592        0.41789340816326526        0        
C_FG        C        0.875        0.018519        0.41789340816326526        0.2        
C2        C        0.9062500000000001        0.074075        0.41789340816326526        0        
C3        C        0.875        0.092592        0.41789340816326526        0        
C4        C        0.9062500000000001        0.037037        0.41789340816326526        0        
C1        C        0.875        0.12963        0.41789340816326526        0        
C2        C        0.9062500000000001        0.185185        0.41789340816326526        0        
C_FG        C        0.875        0.203703        0.41789340816326526        0.2        
C4        C        0.9062500000000001        0.148148        0.41789340816326526        0        
C1        C        0.875        0.24074099999999998        0.41789340816326526        0        
C2        C        0.9062500000000001        0.296297        0.41789340816326526        0        
C3        C        0.875        0.314815        0.41789340816326526        0        
C4        C        0.9062500000000001        0.259259        0.41789340816326526        0        
C_FG        C        0.875        0.351852        0.41789340816326526        0.2        
C2        C        0.9062500000000001        0.407408        0.41789340816326526        0        
C3        C        0.875        0.42592500000000005        0.41789340816326526        0        
C4        C        0.9062500000000001        0.37037        0.41789340816326526        0        
C1        C        0.875        0.46296300000000007        0.41789340816326526        0        
C2        C        0.9062500000000001        0.518519        0.41789340816326526        0        
C_FG        C        0.875        0.537037        0.41789340816326526        0.2        
C4        C        0.9062500000000001        0.481481        0.41789340816326526        0        
C1        C        0.875        0.574075        0.41789340816326526        0        
C2        C        0.9062500000000001        0.62963        0.41789340816326526        0        
C3        C        0.875        0.648148        0.41789340816326526        0        
C4        C        0.9062500000000001        0.592592        0.41789340816326526        0        
C1        C        0.9375        0.018519        0.41789340816326526        0        
C2        C        0.9687500000000001        0.074075        0.41789340816326526        0        
C3        C        0.9375        0.092592        0.41789340816326526        0        
C4        C        0.9687500000000001        0.037037        0.41789340816326526        0        
C1        C        0.9375        0.12963        0.41789340816326526        0        
C2        C        0.9687500000000001        0.185185        0.41789340816326526        0        
C3        C        0.9375        0.203703        0.41789340816326526        0        
C4        C        0.9687500000000001        0.148148        0.41789340816326526        0        
C1        C        0.9375        0.24074099999999998        0.41789340816326526        0        
C2        C        0.9687500000000001        0.296297        0.41789340816326526        0        
C3        C        0.9375        0.314815        0.41789340816326526        0        
C4        C        0.9687500000000001        0.259259        0.41789340816326526        0        
C1        C        0.9375        0.351852        0.41789340816326526        0        
C2        C        0.9687500000000001        0.407408        0.41789340816326526        0        
C3        C        0.9375        0.42592500000000005        0.41789340816326526        0        
C4        C        0.9687500000000001        0.37037        0.41789340816326526        0        
C1        C        0.9375        0.46296300000000007        0.41789340816326526        0        
C2        C        0.9687500000000001        0.518519        0.41789340816326526        0        
C3        C        0.9375        0.537037        0.41789340816326526        0        
C4        C        0.9687500000000001        0.481481        0.41789340816326526        0        
C1        C        0.9375        0.574075        0.41789340816326526        0        
C2        C        0.9687500000000001        0.62963        0.41789340816326526        0        
C3        C        0.9375        0.648148        0.41789340816326526        0        
C4        C        0.9687500000000001        0.592592        0.41789340816326526        0        
C_FG        C        0.0        0.685186        0.41789340816326526        0.2        
C1        C        0.0625        0.685186        0.41789340816326526        0        
C_FG        C        0.125        0.685186        0.41789340816326526        0.2        
C1        C        0.1875        0.685186        0.41789340816326526        0        
C_FG        C        0.25        0.685186        0.41789340816326526        0.2        
C1        C        0.3125        0.685186        0.41789340816326526        0        
C_FG        C        0.375        0.685186        0.41789340816326526        0.2        
C1        C        0.4375        0.685186        0.41789340816326526        0        
C_FG        C        0.5        0.685186        0.41789340816326526        0.2        
C1        C        0.5625        0.685186        0.41789340816326526        0        
C_FG        C        0.625        0.685186        0.41789340816326526        0.2        
C1        C        0.6875        0.685186        0.41789340816326526        0        
C_FG        C        0.75        0.685186        0.41789340816326526        0.2        
C1        C        0.8125        0.685186        0.41789340816326526        0        
C_FG        C        0.875        0.685186        0.41789340816326526        0.2        
C1        C        0.9375        0.685186        0.41789340816326526        0        
C2        C        0.03125        0.740741        0.41789340816326526        0        
C2        C        0.09375        0.740741        0.41789340816326526        0        
C2        C        0.15625        0.740741        0.41789340816326526        0        
C2        C        0.21875        0.740741        0.41789340816326526        0        
C2        C        0.28125        0.740741        0.41789340816326526        0        
C2        C        0.34375        0.740741        0.41789340816326526        0        
C2        C        0.40625        0.740741        0.41789340816326526        0        
C2        C        0.46875        0.740741        0.41789340816326526        0        
C2        C        0.53125        0.740741        0.41789340816326526        0        
C2        C        0.59375        0.740741        0.41789340816326526        0        
C2        C        0.65625        0.740741        0.41789340816326526        0        
C2        C        0.71875        0.740741        0.41789340816326526        0        
C2        C        0.78125        0.740741        0.41789340816326526        0        
C2        C        0.84375        0.740741        0.41789340816326526        0        
C2        C        0.9062500000000001        0.740741        0.41789340816326526        0        
C2        C        0.9687500000000001        0.740741        0.41789340816326526        0        
C3        C        0.0        0.759259        0.41789340816326526        0        
C3        C        0.0625        0.759259        0.41789340816326526        0        
C3        C        0.125        0.759259        0.41789340816326526        0        
C3        C        0.1875        0.759259        0.41789340816326526        0        
C3        C        0.25        0.759259        0.41789340816326526        0        
C3        C        0.3125        0.759259        0.41789340816326526        0        
C3        C        0.375        0.759259        0.41789340816326526        0        
C3        C        0.4375        0.759259        0.41789340816326526        0        
C3        C        0.5        0.759259        0.41789340816326526        0        
C3        C        0.5625        0.759259        0.41789340816326526        0        
C3        C        0.625        0.759259        0.41789340816326526        0        
C3        C        0.6875        0.759259        0.41789340816326526        0        
C3        C        0.75        0.759259        0.41789340816326526        0        
C3        C        0.8125        0.759259        0.41789340816326526        0        
C3        C        0.875        0.759259        0.41789340816326526        0        
C3        C        0.9375        0.759259        0.41789340816326526        0        
C4        C        0.03125        0.703703        0.41789340816326526        0        
C4        C        0.09375        0.703703        0.41789340816326526        0        
C4        C        0.15625        0.703703        0.41789340816326526        0        
C4        C        0.21875        0.703703        0.41789340816326526        0        
C4        C        0.28125        0.703703        0.41789340816326526        0        
C4        C        0.34375        0.703703        0.41789340816326526        0        
C4        C        0.40625        0.703703        0.41789340816326526        0        
C4        C        0.46875        0.703703        0.41789340816326526        0        
C4        C        0.53125        0.703703        0.41789340816326526        0        
C4        C        0.59375        0.703703        0.41789340816326526        0        
C4        C        0.65625        0.703703        0.41789340816326526        0        
C4        C        0.71875        0.703703        0.41789340816326526        0        
C4        C        0.78125        0.703703        0.41789340816326526        0        
C4        C        0.84375        0.703703        0.41789340816326526        0        
C4        C        0.9062500000000001        0.703703        0.41789340816326526        0        
C4        C        0.9687500000000001        0.703703        0.41789340816326526        0        
C1        C        0.0        0.796297        0.41789340816326526        0        
C1        C        0.0625        0.796297        0.41789340816326526        0        
C1        C        0.125        0.796297        0.41789340816326526        0        
C1        C        0.1875        0.796297        0.41789340816326526        0        
C1        C        0.25        0.796297        0.41789340816326526        0        
C1        C        0.3125        0.796297        0.41789340816326526        0        
C1        C        0.375        0.796297        0.41789340816326526        0        
C1        C        0.4375        0.796297        0.41789340816326526        0        
C1        C        0.5        0.796297        0.41789340816326526        0        
C1        C        0.5625        0.796297        0.41789340816326526        0        
C1        C        0.625        0.796297        0.41789340816326526        0        
C1        C        0.6875        0.796297        0.41789340816326526        0        
C1        C        0.75        0.796297        0.41789340816326526        0        
C1        C        0.8125        0.796297        0.41789340816326526        0        
C1        C        0.875        0.796297        0.41789340816326526        0        
C1        C        0.9375        0.796297        0.41789340816326526        0        
C2        C        0.03125        0.851852        0.41789340816326526        0        
C2        C        0.09375        0.851852        0.41789340816326526        0        
C2        C        0.15625        0.851852        0.41789340816326526        0        
C2        C        0.21875        0.851852        0.41789340816326526        0        
C2        C        0.28125        0.851852        0.41789340816326526        0        
C2        C        0.34375        0.851852        0.41789340816326526        0        
C2        C        0.40625        0.851852        0.41789340816326526        0        
C2        C        0.46875        0.851852        0.41789340816326526        0        
C2        C        0.53125        0.851852        0.41789340816326526        0        
C2        C        0.59375        0.851852        0.41789340816326526        0        
C2        C        0.65625        0.851852        0.41789340816326526        0        
C2        C        0.71875        0.851852        0.41789340816326526        0        
C2        C        0.78125        0.851852        0.41789340816326526        0        
C2        C        0.84375        0.851852        0.41789340816326526        0        
C2        C        0.9062500000000001        0.851852        0.41789340816326526        0        
C2        C        0.9687500000000001        0.851852        0.41789340816326526        0        
C_FG        C        0.0        0.87037        0.41789340816326526        0.2        
C3        C        0.0625        0.87037        0.41789340816326526        0        
C_FG        C        0.125        0.87037        0.41789340816326526        0.2        
C3        C        0.1875        0.87037        0.41789340816326526        0        
C_FG        C        0.25        0.87037        0.41789340816326526        0.2        
C3        C        0.3125        0.87037        0.41789340816326526        0        
C_FG        C        0.375        0.87037        0.41789340816326526        0.2        
C3        C        0.4375        0.87037        0.41789340816326526        0        
C_FG        C        0.5        0.87037        0.41789340816326526        0.2        
C3        C        0.5625        0.87037        0.41789340816326526        0        
C_FG        C        0.625        0.87037        0.41789340816326526        0.2        
C3        C        0.6875        0.87037        0.41789340816326526        0        
C_FG        C        0.75        0.87037        0.41789340816326526        0.2        
C3        C        0.8125        0.87037        0.41789340816326526        0        
C_FG        C        0.875        0.87037        0.41789340816326526        0.2        
C3        C        0.9375        0.87037        0.41789340816326526        0        
C4        C        0.03125        0.814814        0.41789340816326526        0        
C4        C        0.09375        0.814814        0.41789340816326526        0        
C4        C        0.15625        0.814814        0.41789340816326526        0        
C4        C        0.21875        0.814814        0.41789340816326526        0        
C4        C        0.28125        0.814814        0.41789340816326526        0        
C4        C        0.34375        0.814814        0.41789340816326526        0        
C4        C        0.40625        0.814814        0.41789340816326526        0        
C4        C        0.46875        0.814814        0.41789340816326526        0        
C4        C        0.53125        0.814814        0.41789340816326526        0        
C4        C        0.59375        0.814814        0.41789340816326526        0        
C4        C        0.65625        0.814814        0.41789340816326526        0        
C4        C        0.71875        0.814814        0.41789340816326526        0        
C4        C        0.78125        0.814814        0.41789340816326526        0        
C4        C        0.84375        0.814814        0.41789340816326526        0        
C4        C        0.9062500000000001        0.814814        0.41789340816326526        0        
C4        C        0.9687500000000001        0.814814        0.41789340816326526        0        
C1        C        0.0        0.907408        0.41789340816326526        0        
C1        C        0.0625        0.907408        0.41789340816326526        0        
C1        C        0.125        0.907408        0.41789340816326526        0        
C1        C        0.1875        0.907408        0.41789340816326526        0        
C1        C        0.25        0.907408        0.41789340816326526        0        
C1        C        0.3125        0.907408        0.41789340816326526        0        
C1        C        0.375        0.907408        0.41789340816326526        0        
C1        C        0.4375        0.907408        0.41789340816326526        0        
C1        C        0.5        0.907408        0.41789340816326526        0        
C1        C        0.5625        0.907408        0.41789340816326526        0        
C1        C        0.625        0.907408        0.41789340816326526        0        
C1        C        0.6875        0.907408        0.41789340816326526        0        
C1        C        0.75        0.907408        0.41789340816326526        0        
C1        C        0.8125        0.907408        0.41789340816326526        0        
C1        C        0.875        0.907408        0.41789340816326526        0        
C1        C        0.9375        0.907408        0.41789340816326526        0        
C2        C        0.03125        0.962963        0.41789340816326526        0        
C2        C        0.09375        0.962963        0.41789340816326526        0        
C2        C        0.15625        0.962963        0.41789340816326526        0        
C2        C        0.21875        0.962963        0.41789340816326526        0        
C2        C        0.28125        0.962963        0.41789340816326526        0        
C2        C        0.34375        0.962963        0.41789340816326526        0        
C2        C        0.40625        0.962963        0.41789340816326526        0        
C2        C        0.46875        0.962963        0.41789340816326526        0        
C2        C        0.53125        0.962963        0.41789340816326526        0        
C2        C        0.59375        0.962963        0.41789340816326526        0        
C2        C        0.65625        0.962963        0.41789340816326526        0        
C2        C        0.71875        0.962963        0.41789340816326526        0        
C2        C        0.78125        0.962963        0.41789340816326526        0        
C2        C        0.84375        0.962963        0.41789340816326526        0        
C2        C        0.9062500000000001        0.962963        0.41789340816326526        0        
C2        C        0.9687500000000001        0.962963        0.41789340816326526        0        
C3        C        0.0        0.9814809999999999        0.41789340816326526        0        
C3        C        0.0625        0.9814809999999999        0.41789340816326526        0        
C3        C        0.125        0.9814809999999999        0.41789340816326526        0        
C3        C        0.1875        0.9814809999999999        0.41789340816326526        0        
C3        C        0.25        0.9814809999999999        0.41789340816326526        0        
C3        C        0.3125        0.9814809999999999        0.41789340816326526        0        
C3        C        0.375        0.9814809999999999        0.41789340816326526        0        
C3        C        0.4375        0.9814809999999999        0.41789340816326526        0        
C3        C        0.5        0.9814809999999999        0.41789340816326526        0        
C3        C        0.5625        0.9814809999999999        0.41789340816326526        0        
C3        C        0.625        0.9814809999999999        0.41789340816326526        0        
C3        C        0.6875        0.9814809999999999        0.41789340816326526        0        
C3        C        0.75        0.9814809999999999        0.41789340816326526        0        
C3        C        0.8125        0.9814809999999999        0.41789340816326526        0        
C3        C        0.875        0.9814809999999999        0.41789340816326526        0        
C3        C        0.9375        0.9814809999999999        0.41789340816326526        0        
C4        C        0.03125        0.925925        0.41789340816326526        0        
C4        C        0.09375        0.925925        0.41789340816326526        0        
C4        C        0.15625        0.925925        0.41789340816326526        0        
C4        C        0.21875        0.925925        0.41789340816326526        0        
C4        C        0.28125        0.925925        0.41789340816326526        0        
C4        C        0.34375        0.925925        0.41789340816326526        0        
C4        C        0.40625        0.925925        0.41789340816326526        0        
C4        C        0.46875        0.925925        0.41789340816326526        0        
C4        C        0.53125        0.925925        0.41789340816326526        0        
C4        C        0.59375        0.925925        0.41789340816326526        0        
C4        C        0.65625        0.925925        0.41789340816326526        0        
C4        C        0.71875        0.925925        0.41789340816326526        0        
C4        C        0.78125        0.925925        0.41789340816326526        0        
C4        C        0.84375        0.925925        0.41789340816326526        0        
C4        C        0.9062500000000001        0.925925        0.41789340816326526        0        
C4        C        0.9687500000000001        0.925925        0.41789340816326526        0        
O_OH        O        0.0        0.018519        0.027444816326530605        -0.64        
O_OH        O        0.0        0.203703        0.027444816326530605        -0.64        
O_OH        O        0.0        0.351852        0.027444816326530605        -0.64        
O_OH        O        0.0        0.537037        0.027444816326530605        -0.64        
O_OH        O        0.125        0.018519        0.027444816326530605        -0.64        
O_OH        O        0.125        0.203703        0.027444816326530605        -0.64        
O_OH        O        0.125        0.351852        0.027444816326530605        -0.64        
O_OH        O        0.125        0.537037        0.027444816326530605        -0.64        
O_OH        O        0.25        0.018519        0.027444816326530605        -0.64        
O_OH        O        0.25        0.203703        0.027444816326530605        -0.64        
O_OH        O        0.25        0.351852        0.027444816326530605        -0.64        
O_OH        O        0.25        0.537037        0.027444816326530605        -0.64        
O_OH        O        0.375        0.018519        0.027444816326530605        -0.64        
O_OH        O        0.375        0.203703        0.027444816326530605        -0.64        
O_OH        O        0.375        0.351852        0.027444816326530605        -0.64        
O_OH        O        0.375        0.537037        0.027444816326530605        -0.64        
O_OH        O        0.5        0.018519        0.027444816326530605        -0.64        
O_OH        O        0.5        0.203703        0.027444816326530605        -0.64        
O_OH        O        0.5        0.351852        0.027444816326530605        -0.64        
O_OH        O        0.5        0.537037        0.027444816326530605        -0.64        
O_OH        O        0.625        0.018519        0.027444816326530605        -0.64        
O_OH        O        0.625        0.203703        0.027444816326530605        -0.64        
O_OH        O        0.625        0.351852        0.027444816326530605        -0.64        
O_OH        O        0.625        0.537037        0.027444816326530605        -0.64        
O_OH        O        0.75        0.018519        0.027444816326530605        -0.64        
O_OH        O        0.75        0.203703        0.027444816326530605        -0.64        
O_OH        O        0.75        0.351852        0.027444816326530605        -0.64        
O_OH        O        0.75        0.537037        0.027444816326530605        -0.64        
O_OH        O        0.875        0.018519        0.027444816326530605        -0.64        
O_OH        O        0.875        0.203703        0.027444816326530605        -0.64        
O_OH        O        0.875        0.351852        0.027444816326530605        -0.64        
O_OH        O        0.875        0.537037        0.027444816326530605        -0.64        
O_OH        O        0.0        0.685186        0.027444816326530605        -0.64        
O_OH        O        0.125        0.685186        0.027444816326530605        -0.64        
O_OH        O        0.25        0.685186        0.027444816326530605        -0.64        
O_OH        O        0.375        0.685186        0.027444816326530605        -0.64        
O_OH        O        0.5        0.685186        0.027444816326530605        -0.64        
O_OH        O        0.625        0.685186        0.027444816326530605        -0.64        
O_OH        O        0.75        0.685186        0.027444816326530605        -0.64        
O_OH        O        0.875        0.685186        0.027444816326530605        -0.64        
O_OH        O        0.0        0.87037        0.027444816326530605        -0.64        
O_OH        O        0.125        0.87037        0.027444816326530605        -0.64        
O_OH        O        0.25        0.87037        0.027444816326530605        -0.64        
O_OH        O        0.375        0.87037        0.027444816326530605        -0.64        
O_OH        O        0.5        0.87037        0.027444816326530605        -0.64        
O_OH        O        0.625        0.87037        0.027444816326530605        -0.64        
O_OH        O        0.75        0.87037        0.027444816326530605        -0.64        
O_OH        O        0.875        0.87037        0.027444816326530605        -0.64        
O_OH        O        0.0        0.018519        0.5348733877551021        -0.64        
O_OH        O        0.0        0.203703        0.5348733877551021        -0.64        
O_OH        O        0.0        0.351852        0.5348733877551021        -0.64        
O_OH        O        0.0        0.537037        0.5348733877551021        -0.64        
O_OH        O        0.125        0.018519        0.5348733877551021        -0.64        
O_OH        O        0.125        0.203703        0.5348733877551021        -0.64        
O_OH        O        0.125        0.351852        0.5348733877551021        -0.64        
O_OH        O        0.125        0.537037        0.5348733877551021        -0.64        
O_OH        O        0.25        0.018519        0.5348733877551021        -0.64        
O_OH        O        0.25        0.203703        0.5348733877551021        -0.64        
O_OH        O        0.25        0.351852        0.5348733877551021        -0.64        
O_OH        O        0.25        0.537037        0.5348733877551021        -0.64        
O_OH        O        0.375        0.018519        0.5348733877551021        -0.64        
O_OH        O        0.375        0.203703        0.5348733877551021        -0.64        
O_OH        O        0.375        0.351852        0.5348733877551021        -0.64        
O_OH        O        0.375        0.537037        0.5348733877551021        -0.64        
O_OH        O        0.5        0.018519        0.5348733877551021        -0.64        
O_OH        O        0.5        0.203703        0.5348733877551021        -0.64        
O_OH        O        0.5        0.351852        0.5348733877551021        -0.64        
O_OH        O        0.5        0.537037        0.5348733877551021        -0.64        
O_OH        O        0.625        0.018519        0.5348733877551021        -0.64        
O_OH        O        0.625        0.203703        0.5348733877551021        -0.64        
O_OH        O        0.625        0.351852        0.5348733877551021        -0.64        
O_OH        O        0.625        0.537037        0.5348733877551021        -0.64        
O_OH        O        0.75        0.018519        0.5348733877551021        -0.64        
O_OH        O        0.75        0.203703        0.5348733877551021        -0.64        
O_OH        O        0.75        0.351852        0.5348733877551021        -0.64        
O_OH        O        0.75        0.537037        0.5348733877551021        -0.64        
O_OH        O        0.875        0.018519        0.5348733877551021        -0.64        
O_OH        O        0.875        0.203703        0.5348733877551021        -0.64        
O_OH        O        0.875        0.351852        0.5348733877551021        -0.64        
O_OH        O        0.875        0.537037        0.5348733877551021        -0.64        
O_OH        O        0.0        0.685186        0.5348733877551021        -0.64        
O_OH        O        0.125        0.685186        0.5348733877551021        -0.64        
O_OH        O        0.25        0.685186        0.5348733877551021        -0.64        
O_OH        O        0.375        0.685186        0.5348733877551021        -0.64        
O_OH        O        0.5        0.685186        0.5348733877551021        -0.64        
O_OH        O        0.625        0.685186        0.5348733877551021        -0.64        
O_OH        O        0.75        0.685186        0.5348733877551021        -0.64        
O_OH        O        0.875        0.685186        0.5348733877551021        -0.64        
O_OH        O        0.0        0.87037        0.5348733877551021        -0.64        
O_OH        O        0.125        0.87037        0.5348733877551021        -0.64        
O_OH        O        0.25        0.87037        0.5348733877551021        -0.64        
O_OH        O        0.375        0.87037        0.5348733877551021        -0.64        
O_OH        O        0.5        0.87037        0.5348733877551021        -0.64        
O_OH        O        0.625        0.87037        0.5348733877551021        -0.64        
O_OH        O        0.75        0.87037        0.5348733877551021        -0.64        
O_OH        O        0.875        0.87037        0.5348733877551021        -0.64        
H_OH        H        0.01616242441989492        0.035094773287496994        0.0        0.44        
H_OH        H        -0.022297973521682023        0.20880767987190252        0.0        0.44        
H_OH        H        0.0020548902056882843        0.3752103842400799        0.0        0.44        
H_OH        H        -0.00915097039423301        0.5585267454662818        0.0        0.44        
H_OH        H        0.144433120956722        0.030850140348238693        0.0        0.44        
H_OH        H        0.11085547556529991        0.22212065333824837        0.0        0.44        
H_OH        H        0.14720106240917313        0.3573839722897453        0.0        0.44        
H_OH        H        0.1118523415675536        0.5562172887121316        0.0        0.44        
H_OH        H        0.2576749530986128        0.040609349366090446        0.0        0.44        
H_OH        H        0.22767226363952697        0.2086686780328064        0.0        0.44        
H_OH        H        0.22767352663160242        0.35682365937927757        0.0        0.44        
H_OH        H        0.24350354849883923        0.5595222175661194        0.0        0.44        
H_OH        H        0.39300427887218153        0.032956216903560674        0.0        0.44        
H_OH        H        0.37320194869059803        0.22708369832033734        0.0        0.44        
H_OH        H        0.35276617124299414        0.3572434977890744        0.0        0.44        
H_OH        H        0.3977863883055297        0.5387253916604482        0.0        0.44        
H_OH        H        0.47887340879523255        0.027444640150307474        0.0        0.44        
H_OH        H        0.5137318640771821        0.222446896489321        0.0        0.44        
H_OH        H        0.48946627008961635        0.3726635930463189        0.0        0.44        
H_OH        H        0.4920666710256455        0.5590309377846798        0.0        0.44        
H_OH        H        0.6448587887319989        0.030113393588125665        0.0        0.44        
H_OH        H        0.6387752715572178        0.2224132983334695        0.0        0.44        
H_OH        H        0.645928614812134        0.36125635487575397        0.0        0.44        
H_OH        H        0.6046379046709806        0.5476716172012277        0.0        0.44        
H_OH        H        0.7709881388878366        0.027782493476133385        0.0        0.44        
H_OH        H        0.732176962523482        0.21837531140442368        0.0        0.44        
H_OH        H        0.7699519266652157        0.3632766295680212        0.0        0.44        
H_OH        H        0.7480871769963529        0.5604080972709259        0.0        0.44        
H_OH        H        0.8978397035586007        0.019054673137989333        0.0        0.44        
H_OH        H        0.8890552476255256        0.22219254510229444        0.0        0.44        
H_OH        H        0.8963939933181224        0.3600790243046328        0.0        0.44        
H_OH        H        0.89148505212974        0.5532744685283537        0.0        0.44        
H_OH        H        -0.021095026438389054        0.6941899781299263        0.0        0.44        
H_OH        H        0.1392358648792222        0.7035293342690933        0.0        0.44        
H_OH        H        0.24714600194119538        0.7084557203573277        0.0        0.44        
H_OH        H        0.35664137694752635        0.6991449950793238        0.0        0.44        
H_OH        H        0.49810299874666863        0.7085584563468081        0.0        0.44        
H_OH        H        0.6066883853091434        0.6992099185712927        0.0        0.44        
H_OH        H        0.7605486417959367        0.7059896313474084        0.0        0.44        
H_OH        H        0.8521730733676496        0.6861356755706389        0.0        0.44        
H_OH        H        0.0037961745179141684        0.893497395702105        0.0        0.44        
H_OH        H        0.10219354276596675        0.8717434386786599        0.0        0.44        
H_OH        H        0.27042619769032533        0.8808742604297022        0.0        0.44        
H_OH        H        0.3541988714777284        0.8800678704795488        0.0        0.44        
H_OH        H        0.5023950372867233        0.893694212220842        0.0        0.44        
H_OH        H        0.6452292059701007        0.8812686267786706        0.0        0.44        
H_OH        H        0.7534109967657282        0.8935605615895892        0.0        0.44        
H_OH        H        0.8546914969325449        0.8811120775026419        0.0        0.44        
H_OH        H        -0.02130356672241314        0.026989719744135183        0.5623182040816327        0.44        
H_OH        H        0.02283838056997824        0.20429514484760447        0.5623182040816327        0.44        
H_OH        H        -0.020639030964912573        0.3619082524063327        0.5623182040816327        0.44        
H_OH        H        -0.022714369927054074        0.5395478233293218        0.5623182040816327        0.44        
H_OH        H        0.1467287787483406        0.025762526472220222        0.5623182040816327        0.44        
H_OH        H        0.1098483608238333        0.22125619312432512        0.5623182040816327        0.44        
H_OH        H        0.1433186415894815        0.36586624336869245        0.5623182040816327        0.44        
H_OH        H        0.10250372105995943        0.5411230594255243        0.5623182040816327        0.44        
H_OH        H        0.23664311025523094        0.03754631979529149        0.5623182040816327        0.44        
H_OH        H        0.25801130550992907        0.22566712888929236        0.5623182040816327        0.44        
H_OH        H        0.23741954109672878        0.37142911022505865        0.5623182040816327        0.44        
H_OH        H        0.2409677807207723        0.5585796287506412        0.5623182040816327        0.44        
H_OH        H        0.35256621735948085        0.0229524228407432        0.5623182040816327        0.44        
H_OH        H        0.39516263775695293        0.214730866898317        0.5623182040816327        0.44        
H_OH        H        0.3625641096951736        0.37152621699701754        0.5623182040816327        0.44        
H_OH        H        0.38653874739539074        0.5572791132939781        0.5623182040816327        0.44        
H_OH        H        0.5161630322566668        0.03509414862995089        0.5623182040816327        0.44        
H_OH        H        0.4960441169595538        0.22680216904663453        0.5623182040816327        0.44        
H_OH        H        0.4907331799769963        0.37328936051734213        0.5623182040816327        0.44        
H_OH        H        0.48253627470182353        0.5521578228433863        0.5623182040816327        0.44        
H_OH        H        0.6468471754867527        0.02537693403094077        0.5623182040816327        0.44        
H_OH        H        0.6455683733485292        0.21391068396437316        0.5623182040816327        0.44        
H_OH        H        0.6168838904937994        0.3737755401041482        0.5623182040816327        0.44        
H_OH        H        0.6169778601797907        0.5589969608546821        0.5623182040816327        0.44        
H_OH        H        0.727316835321772        0.021311356472357226        0.5623182040816327        0.44        
H_OH        H        0.735176520181674        0.22154905151829812        0.5623182040816327        0.44        
H_OH        H        0.7465863768181412        0.3750421542932348        0.5623182040816327        0.44        
H_OH        H        0.7315725935860139        0.5509001473776874        0.5623182040816327        0.44        
H_OH        H        0.8531330755466952        0.02531027416756728        0.5623182040816327        0.44        
H_OH        H        0.8963976325305143        0.21192004356118715        0.5623182040816327        0.44        
H_OH        H        0.8752679735826759        0.3753038372511579        0.5623182040816327        0.44        
H_OH        H        0.8975675150777122        0.5406856479289968        0.5623182040816327        0.44        
H_OH        H        -0.019298164011420548        0.6977385256300328        0.5623182040816327        0.44        
H_OH        H        0.1344168214649838        0.7065543586054612        0.5623182040816327        0.44        
H_OH        H        0.22830861100793792        0.6925466844848036        0.5623182040816327        0.44        
H_OH        H        0.39158292234350317        0.7013180960400744        0.5623182040816327        0.44        
H_OH        H        0.4830186854512751        0.7008752269799313        0.5623182040816327        0.44        
H_OH        H        0.6443513944720057        0.6976518590903531        0.5623182040816327        0.44        
H_OH        H        0.7613283372085707        0.705552983891117        0.5623182040816327        0.44        
H_OH        H        0.8654699200924258        0.7065013736766782        0.5623182040816327        0.44        
H_OH        H        -0.022094755800975224        0.8763336852962956        0.5623182040816327        0.44        
H_OH        H        0.14739785890638168        0.8749908863558103        0.5623182040816327        0.44        
H_OH        H        0.23180748630032358        0.8845563448074161        0.5623182040816327        0.44        
H_OH        H        0.3968106924694925        0.8773492482126678        0.5623182040816327        0.44        
H_OH        H        0.48704679478600116        0.889689226606854        0.5623182040816327        0.44        
H_OH        H        0.6333682426395745        0.8921934110818737        0.5623182040816327        0.44        
H_OH        H        0.7642595871678469        0.8886939048467729        0.5623182040816327        0.44        
H_OH        H        0.8528610445686017        0.8761583518278232        0.5623182040816327        0.44        
