data_graphite_ortho

_audit_creation_method RASPA-1.0
_audit_creation_date 2012-2-3
_audit_author_name 'David Dubbeldam'

_cell_length_a    39.36    
_cell_length_b    38.34    
_cell_length_c    34.6    
_cell_angle_alpha 90
_cell_angle_beta  90
_cell_angle_gamma 90
_cell_volume      52213.56      

_symmetry_cell_setting          triclinic
_symmetry_space_group_name_Hall 'P 1'
_symmetry_space_group_name_H-M  'P 1'
_symmetry_Int_Tables_number     1

_symmetry_equiv_pos_as_xyz 'x,y,z'

loop_
_atom_site_label
_atom_site_type_symbol
_atom_site_fract_x
_atom_site_fract_y
_atom_site_fract_z
_atom_site_charge
C_Base_CO        C        0.0        0.018519        0.05113291907514451        0.5        
C_Base_OH        C        0.03125        0.074075        0.05113291907514451        0.2        
C_Base_OH        C        0.0        0.092592        0.05113291907514451        0.2        
C_Base_CO        C        0.03125        0.037037        0.05113291907514451        0.5        
C_Base_OH        C        0.0        0.12963        0.05113291907514451        0.2        
C_Base_CO        C        0.03125        0.185185        0.05113291907514451        0.5        
C_Base_OH        C        0.0        0.203703        0.05113291907514451        0.2        
C_Base_OH        C        0.03125        0.148148        0.05113291907514451        0.2        
C_Base_CO        C        0.0        0.24074099999999998        0.05113291907514451        0.5        
C_Base_CO        C        0.03125        0.296297        0.05113291907514451        0.5        
C_Base_OH        C        0.0        0.314815        0.05113291907514451        0.2        
C_Base_OH        C        0.03125        0.259259        0.05113291907514451        0.2        
C_Base_CO        C        0.0        0.351852        0.05113291907514451        0.5        
C_Base_OH        C        0.03125        0.407408        0.05113291907514451        0.2        
C_Base_CO        C        0.0        0.42592500000000005        0.05113291907514451        0.5        
C_Base_OH        C        0.03125        0.37037        0.05113291907514451        0.2        
C_Base_CO        C        0.0        0.46296300000000007        0.05113291907514451        0.5        
C_Base_CO        C        0.03125        0.518519        0.05113291907514451        0.5        
C_Base_CO        C        0.0        0.537037        0.05113291907514451        0.5        
C_Base_OH        C        0.03125        0.481481        0.05113291907514451        0.2        
C_Base_OH        C        0.0        0.574075        0.05113291907514451        0.2        
C_Base_OH        C        0.03125        0.62963        0.05113291907514451        0.2        
C_Base_CO        C        0.0        0.648148        0.05113291907514451        0.5        
C_Base_CO        C        0.03125        0.592592        0.05113291907514451        0.5        
C_Base_CO        C        0.0625        0.018519        0.05113291907514451        0.5        
C_Base_OH        C        0.09375        0.074075        0.05113291907514451        0.2        
C_Base_OH        C        0.0625        0.092592        0.05113291907514451        0.2        
C_Base_CO        C        0.09375        0.037037        0.05113291907514451        0.5        
C_Base_OH        C        0.0625        0.12963        0.05113291907514451        0.2        
C_Base_CO        C        0.09375        0.185185        0.05113291907514451        0.5        
C_Base_OH        C        0.0625        0.203703        0.05113291907514451        0.2        
C_Base_OH        C        0.09375        0.148148        0.05113291907514451        0.2        
C_Base_CO        C        0.0625        0.24074099999999998        0.05113291907514451        0.5        
C_Base_CO        C        0.09375        0.296297        0.05113291907514451        0.5        
C_Base_OH        C        0.0625        0.314815        0.05113291907514451        0.2        
C_Base_OH        C        0.09375        0.259259        0.05113291907514451        0.2        
C_Base_CO        C        0.0625        0.351852        0.05113291907514451        0.5        
C_Base_OH        C        0.09375        0.407408        0.05113291907514451        0.2        
C_Base_CO        C        0.0625        0.42592500000000005        0.05113291907514451        0.5        
C_Base_OH        C        0.09375        0.37037        0.05113291907514451        0.2        
C_Base_CO        C        0.0625        0.46296300000000007        0.05113291907514451        0.5        
C_Base_CO        C        0.09375        0.518519        0.05113291907514451        0.5        
C_Base_CO        C        0.0625        0.537037        0.05113291907514451        0.5        
C_Base_OH        C        0.09375        0.481481        0.05113291907514451        0.2        
C_Base_OH        C        0.0625        0.574075        0.05113291907514451        0.2        
C_Base_OH        C        0.09375        0.62963        0.05113291907514451        0.2        
C_Base_CO        C        0.0625        0.648148        0.05113291907514451        0.5        
C_Base_CO        C        0.09375        0.592592        0.05113291907514451        0.5        
C1        C        0.125        0.018519        0.05113291907514451        0        
C2        C        0.15625        0.074075        0.05113291907514451        0        
C3        C        0.125        0.092592        0.05113291907514451        0        
C4        C        0.15625        0.037037        0.05113291907514451        0        
C1        C        0.125        0.12963        0.05113291907514451        0        
C2        C        0.15625        0.185185        0.05113291907514451        0        
C3        C        0.125        0.203703        0.05113291907514451        0        
C4        C        0.15625        0.148148        0.05113291907514451        0        
C1        C        0.125        0.24074099999999998        0.05113291907514451        0        
C2        C        0.15625        0.296297        0.05113291907514451        0        
C3        C        0.125        0.314815        0.05113291907514451        0        
C4        C        0.15625        0.259259        0.05113291907514451        0        
C1        C        0.125        0.351852        0.05113291907514451        0        
C2        C        0.15625        0.407408        0.05113291907514451        0        
C3        C        0.125        0.42592500000000005        0.05113291907514451        0        
C4        C        0.15625        0.37037        0.05113291907514451        0        
C1        C        0.125        0.46296300000000007        0.05113291907514451        0        
C2        C        0.15625        0.518519        0.05113291907514451        0        
C3        C        0.125        0.537037        0.05113291907514451        0        
C4        C        0.15625        0.481481        0.05113291907514451        0        
C1        C        0.125        0.574075        0.05113291907514451        0        
C2        C        0.15625        0.62963        0.05113291907514451        0        
C3        C        0.125        0.648148        0.05113291907514451        0        
C4        C        0.15625        0.592592        0.05113291907514451        0        
C1        C        0.1875        0.018519        0.05113291907514451        0        
C2        C        0.21875        0.074075        0.05113291907514451        0        
C3        C        0.1875        0.092592        0.05113291907514451        0        
C4        C        0.21875        0.037037        0.05113291907514451        0        
C1        C        0.1875        0.12963        0.05113291907514451        0        
C2        C        0.21875        0.185185        0.05113291907514451        0        
C3        C        0.1875        0.203703        0.05113291907514451        0        
C4        C        0.21875        0.148148        0.05113291907514451        0        
C1        C        0.1875        0.24074099999999998        0.05113291907514451        0        
C2        C        0.21875        0.296297        0.05113291907514451        0        
C3        C        0.1875        0.314815        0.05113291907514451        0        
C4        C        0.21875        0.259259        0.05113291907514451        0        
C1        C        0.1875        0.351852        0.05113291907514451        0        
C2        C        0.21875        0.407408        0.05113291907514451        0        
C3        C        0.1875        0.42592500000000005        0.05113291907514451        0        
C4        C        0.21875        0.37037        0.05113291907514451        0        
C1        C        0.1875        0.46296300000000007        0.05113291907514451        0        
C2        C        0.21875        0.518519        0.05113291907514451        0        
C3        C        0.1875        0.537037        0.05113291907514451        0        
C4        C        0.21875        0.481481        0.05113291907514451        0        
C1        C        0.1875        0.574075        0.05113291907514451        0        
C2        C        0.21875        0.62963        0.05113291907514451        0        
C3        C        0.1875        0.648148        0.05113291907514451        0        
C4        C        0.21875        0.592592        0.05113291907514451        0        
C1        C        0.25        0.018519        0.05113291907514451        0        
C2        C        0.28125        0.074075        0.05113291907514451        0        
C3        C        0.25        0.092592        0.05113291907514451        0        
C4        C        0.28125        0.037037        0.05113291907514451        0        
C1        C        0.25        0.12963        0.05113291907514451        0        
C2        C        0.28125        0.185185        0.05113291907514451        0        
C3        C        0.25        0.203703        0.05113291907514451        0        
C4        C        0.28125        0.148148        0.05113291907514451        0        
C1        C        0.25        0.24074099999999998        0.05113291907514451        0        
C2        C        0.28125        0.296297        0.05113291907514451        0        
C3        C        0.25        0.314815        0.05113291907514451        0        
C4        C        0.28125        0.259259        0.05113291907514451        0        
C1        C        0.25        0.351852        0.05113291907514451        0        
C2        C        0.28125        0.407408        0.05113291907514451        0        
C3        C        0.25        0.42592500000000005        0.05113291907514451        0        
C4        C        0.28125        0.37037        0.05113291907514451        0        
C1        C        0.25        0.46296300000000007        0.05113291907514451        0        
C2        C        0.28125        0.518519        0.05113291907514451        0        
C3        C        0.25        0.537037        0.05113291907514451        0        
C4        C        0.28125        0.481481        0.05113291907514451        0        
C1        C        0.25        0.574075        0.05113291907514451        0        
C2        C        0.28125        0.62963        0.05113291907514451        0        
C3        C        0.25        0.648148        0.05113291907514451        0        
C4        C        0.28125        0.592592        0.05113291907514451        0        
C1        C        0.3125        0.018519        0.05113291907514451        0        
C2        C        0.34375        0.074075        0.05113291907514451        0        
C3        C        0.3125        0.092592        0.05113291907514451        0        
C4        C        0.34375        0.037037        0.05113291907514451        0        
C1        C        0.3125        0.12963        0.05113291907514451        0        
C2        C        0.34375        0.185185        0.05113291907514451        0        
C3        C        0.3125        0.203703        0.05113291907514451        0        
C4        C        0.34375        0.148148        0.05113291907514451        0        
C1        C        0.3125        0.24074099999999998        0.05113291907514451        0        
C2        C        0.34375        0.296297        0.05113291907514451        0        
C3        C        0.3125        0.314815        0.05113291907514451        0        
C4        C        0.34375        0.259259        0.05113291907514451        0        
C1        C        0.3125        0.351852        0.05113291907514451        0        
C2        C        0.34375        0.407408        0.05113291907514451        0        
C3        C        0.3125        0.42592500000000005        0.05113291907514451        0        
C4        C        0.34375        0.37037        0.05113291907514451        0        
C1        C        0.3125        0.46296300000000007        0.05113291907514451        0        
C2        C        0.34375        0.518519        0.05113291907514451        0        
C3        C        0.3125        0.537037        0.05113291907514451        0        
C4        C        0.34375        0.481481        0.05113291907514451        0        
C1        C        0.3125        0.574075        0.05113291907514451        0        
C2        C        0.34375        0.62963        0.05113291907514451        0        
C3        C        0.3125        0.648148        0.05113291907514451        0        
C4        C        0.34375        0.592592        0.05113291907514451        0        
C1        C        0.375        0.018519        0.05113291907514451        0        
C2        C        0.40625        0.074075        0.05113291907514451        0        
C3        C        0.375        0.092592        0.05113291907514451        0        
C4        C        0.40625        0.037037        0.05113291907514451        0        
C1        C        0.375        0.12963        0.05113291907514451        0        
C2        C        0.40625        0.185185        0.05113291907514451        0        
C3        C        0.375        0.203703        0.05113291907514451        0        
C4        C        0.40625        0.148148        0.05113291907514451        0        
C1        C        0.375        0.24074099999999998        0.05113291907514451        0        
C2        C        0.40625        0.296297        0.05113291907514451        0        
C3        C        0.375        0.314815        0.05113291907514451        0        
C4        C        0.40625        0.259259        0.05113291907514451        0        
C1        C        0.375        0.351852        0.05113291907514451        0        
C2        C        0.40625        0.407408        0.05113291907514451        0        
C3        C        0.375        0.42592500000000005        0.05113291907514451        0        
C4        C        0.40625        0.37037        0.05113291907514451        0        
C1        C        0.375        0.46296300000000007        0.05113291907514451        0        
C2        C        0.40625        0.518519        0.05113291907514451        0        
C3        C        0.375        0.537037        0.05113291907514451        0        
C4        C        0.40625        0.481481        0.05113291907514451        0        
C1        C        0.375        0.574075        0.05113291907514451        0        
C2        C        0.40625        0.62963        0.05113291907514451        0        
C3        C        0.375        0.648148        0.05113291907514451        0        
C4        C        0.40625        0.592592        0.05113291907514451        0        
C1        C        0.4375        0.018519        0.05113291907514451        0        
C2        C        0.46875        0.074075        0.05113291907514451        0        
C3        C        0.4375        0.092592        0.05113291907514451        0        
C4        C        0.46875        0.037037        0.05113291907514451        0        
C1        C        0.4375        0.12963        0.05113291907514451        0        
C2        C        0.46875        0.185185        0.05113291907514451        0        
C3        C        0.4375        0.203703        0.05113291907514451        0        
C4        C        0.46875        0.148148        0.05113291907514451        0        
C1        C        0.4375        0.24074099999999998        0.05113291907514451        0        
C2        C        0.46875        0.296297        0.05113291907514451        0        
C3        C        0.4375        0.314815        0.05113291907514451        0        
C4        C        0.46875        0.259259        0.05113291907514451        0        
C1        C        0.4375        0.351852        0.05113291907514451        0        
C2        C        0.46875        0.407408        0.05113291907514451        0        
C3        C        0.4375        0.42592500000000005        0.05113291907514451        0        
C4        C        0.46875        0.37037        0.05113291907514451        0        
C1        C        0.4375        0.46296300000000007        0.05113291907514451        0        
C2        C        0.46875        0.518519        0.05113291907514451        0        
C3        C        0.4375        0.537037        0.05113291907514451        0        
C4        C        0.46875        0.481481        0.05113291907514451        0        
C1        C        0.4375        0.574075        0.05113291907514451        0        
C2        C        0.46875        0.62963        0.05113291907514451        0        
C3        C        0.4375        0.648148        0.05113291907514451        0        
C4        C        0.46875        0.592592        0.05113291907514451        0        
C1        C        0.5        0.018519        0.05113291907514451        0        
C2        C        0.53125        0.074075        0.05113291907514451        0        
C3        C        0.5        0.092592        0.05113291907514451        0        
C4        C        0.53125        0.037037        0.05113291907514451        0        
C1        C        0.5        0.12963        0.05113291907514451        0        
C2        C        0.53125        0.185185        0.05113291907514451        0        
C3        C        0.5        0.203703        0.05113291907514451        0        
C4        C        0.53125        0.148148        0.05113291907514451        0        
C1        C        0.5        0.24074099999999998        0.05113291907514451        0        
C2        C        0.53125        0.296297        0.05113291907514451        0        
C3        C        0.5        0.314815        0.05113291907514451        0        
C4        C        0.53125        0.259259        0.05113291907514451        0        
C1        C        0.5        0.351852        0.05113291907514451        0        
C2        C        0.53125        0.407408        0.05113291907514451        0        
C3        C        0.5        0.42592500000000005        0.05113291907514451        0        
C4        C        0.53125        0.37037        0.05113291907514451        0        
C1        C        0.5        0.46296300000000007        0.05113291907514451        0        
C2        C        0.53125        0.518519        0.05113291907514451        0        
C3        C        0.5        0.537037        0.05113291907514451        0        
C4        C        0.53125        0.481481        0.05113291907514451        0        
C1        C        0.5        0.574075        0.05113291907514451        0        
C2        C        0.53125        0.62963        0.05113291907514451        0        
C3        C        0.5        0.648148        0.05113291907514451        0        
C4        C        0.53125        0.592592        0.05113291907514451        0        
C1        C        0.5625        0.018519        0.05113291907514451        0        
C2        C        0.59375        0.074075        0.05113291907514451        0        
C3        C        0.5625        0.092592        0.05113291907514451        0        
C4        C        0.59375        0.037037        0.05113291907514451        0        
C1        C        0.5625        0.12963        0.05113291907514451        0        
C2        C        0.59375        0.185185        0.05113291907514451        0        
C3        C        0.5625        0.203703        0.05113291907514451        0        
C4        C        0.59375        0.148148        0.05113291907514451        0        
C1        C        0.5625        0.24074099999999998        0.05113291907514451        0        
C2        C        0.59375        0.296297        0.05113291907514451        0        
C3        C        0.5625        0.314815        0.05113291907514451        0        
C4        C        0.59375        0.259259        0.05113291907514451        0        
C1        C        0.5625        0.351852        0.05113291907514451        0        
C2        C        0.59375        0.407408        0.05113291907514451        0        
C3        C        0.5625        0.42592500000000005        0.05113291907514451        0        
C4        C        0.59375        0.37037        0.05113291907514451        0        
C1        C        0.5625        0.46296300000000007        0.05113291907514451        0        
C2        C        0.59375        0.518519        0.05113291907514451        0        
C3        C        0.5625        0.537037        0.05113291907514451        0        
C4        C        0.59375        0.481481        0.05113291907514451        0        
C1        C        0.5625        0.574075        0.05113291907514451        0        
C2        C        0.59375        0.62963        0.05113291907514451        0        
C3        C        0.5625        0.648148        0.05113291907514451        0        
C4        C        0.59375        0.592592        0.05113291907514451        0        
C1        C        0.625        0.018519        0.05113291907514451        0        
C2        C        0.65625        0.074075        0.05113291907514451        0        
C3        C        0.625        0.092592        0.05113291907514451        0        
C4        C        0.65625        0.037037        0.05113291907514451        0        
C1        C        0.625        0.12963        0.05113291907514451        0        
C2        C        0.65625        0.185185        0.05113291907514451        0        
C3        C        0.625        0.203703        0.05113291907514451        0        
C4        C        0.65625        0.148148        0.05113291907514451        0        
C1        C        0.625        0.24074099999999998        0.05113291907514451        0        
C2        C        0.65625        0.296297        0.05113291907514451        0        
C3        C        0.625        0.314815        0.05113291907514451        0        
C4        C        0.65625        0.259259        0.05113291907514451        0        
C1        C        0.625        0.351852        0.05113291907514451        0        
C2        C        0.65625        0.407408        0.05113291907514451        0        
C3        C        0.625        0.42592500000000005        0.05113291907514451        0        
C4        C        0.65625        0.37037        0.05113291907514451        0        
C1        C        0.625        0.46296300000000007        0.05113291907514451        0        
C2        C        0.65625        0.518519        0.05113291907514451        0        
C3        C        0.625        0.537037        0.05113291907514451        0        
C4        C        0.65625        0.481481        0.05113291907514451        0        
C1        C        0.625        0.574075        0.05113291907514451        0        
C2        C        0.65625        0.62963        0.05113291907514451        0        
C3        C        0.625        0.648148        0.05113291907514451        0        
C4        C        0.65625        0.592592        0.05113291907514451        0        
C1        C        0.6875        0.018519        0.05113291907514451        0        
C2        C        0.71875        0.074075        0.05113291907514451        0        
C3        C        0.6875        0.092592        0.05113291907514451        0        
C4        C        0.71875        0.037037        0.05113291907514451        0        
C1        C        0.6875        0.12963        0.05113291907514451        0        
C2        C        0.71875        0.185185        0.05113291907514451        0        
C3        C        0.6875        0.203703        0.05113291907514451        0        
C4        C        0.71875        0.148148        0.05113291907514451        0        
C1        C        0.6875        0.24074099999999998        0.05113291907514451        0        
C2        C        0.71875        0.296297        0.05113291907514451        0        
C3        C        0.6875        0.314815        0.05113291907514451        0        
C4        C        0.71875        0.259259        0.05113291907514451        0        
C1        C        0.6875        0.351852        0.05113291907514451        0        
C2        C        0.71875        0.407408        0.05113291907514451        0        
C3        C        0.6875        0.42592500000000005        0.05113291907514451        0        
C4        C        0.71875        0.37037        0.05113291907514451        0        
C1        C        0.6875        0.46296300000000007        0.05113291907514451        0        
C2        C        0.71875        0.518519        0.05113291907514451        0        
C3        C        0.6875        0.537037        0.05113291907514451        0        
C4        C        0.71875        0.481481        0.05113291907514451        0        
C1        C        0.6875        0.574075        0.05113291907514451        0        
C2        C        0.71875        0.62963        0.05113291907514451        0        
C3        C        0.6875        0.648148        0.05113291907514451        0        
C4        C        0.71875        0.592592        0.05113291907514451        0        
C1        C        0.75        0.018519        0.05113291907514451        0        
C2        C        0.78125        0.074075        0.05113291907514451        0        
C3        C        0.75        0.092592        0.05113291907514451        0        
C4        C        0.78125        0.037037        0.05113291907514451        0        
C1        C        0.75        0.12963        0.05113291907514451        0        
C2        C        0.78125        0.185185        0.05113291907514451        0        
C3        C        0.75        0.203703        0.05113291907514451        0        
C4        C        0.78125        0.148148        0.05113291907514451        0        
C1        C        0.75        0.24074099999999998        0.05113291907514451        0        
C2        C        0.78125        0.296297        0.05113291907514451        0        
C3        C        0.75        0.314815        0.05113291907514451        0        
C4        C        0.78125        0.259259        0.05113291907514451        0        
C1        C        0.75        0.351852        0.05113291907514451        0        
C2        C        0.78125        0.407408        0.05113291907514451        0        
C3        C        0.75        0.42592500000000005        0.05113291907514451        0        
C4        C        0.78125        0.37037        0.05113291907514451        0        
C1        C        0.75        0.46296300000000007        0.05113291907514451        0        
C2        C        0.78125        0.518519        0.05113291907514451        0        
C3        C        0.75        0.537037        0.05113291907514451        0        
C4        C        0.78125        0.481481        0.05113291907514451        0        
C1        C        0.75        0.574075        0.05113291907514451        0        
C2        C        0.78125        0.62963        0.05113291907514451        0        
C3        C        0.75        0.648148        0.05113291907514451        0        
C4        C        0.78125        0.592592        0.05113291907514451        0        
C1        C        0.8125        0.018519        0.05113291907514451        0        
C2        C        0.84375        0.074075        0.05113291907514451        0        
C3        C        0.8125        0.092592        0.05113291907514451        0        
C4        C        0.84375        0.037037        0.05113291907514451        0        
C1        C        0.8125        0.12963        0.05113291907514451        0        
C2        C        0.84375        0.185185        0.05113291907514451        0        
C3        C        0.8125        0.203703        0.05113291907514451        0        
C4        C        0.84375        0.148148        0.05113291907514451        0        
C1        C        0.8125        0.24074099999999998        0.05113291907514451        0        
C2        C        0.84375        0.296297        0.05113291907514451        0        
C3        C        0.8125        0.314815        0.05113291907514451        0        
C4        C        0.84375        0.259259        0.05113291907514451        0        
C1        C        0.8125        0.351852        0.05113291907514451        0        
C2        C        0.84375        0.407408        0.05113291907514451        0        
C3        C        0.8125        0.42592500000000005        0.05113291907514451        0        
C4        C        0.84375        0.37037        0.05113291907514451        0        
C1        C        0.8125        0.46296300000000007        0.05113291907514451        0        
C2        C        0.84375        0.518519        0.05113291907514451        0        
C3        C        0.8125        0.537037        0.05113291907514451        0        
C4        C        0.84375        0.481481        0.05113291907514451        0        
C1        C        0.8125        0.574075        0.05113291907514451        0        
C2        C        0.84375        0.62963        0.05113291907514451        0        
C3        C        0.8125        0.648148        0.05113291907514451        0        
C4        C        0.84375        0.592592        0.05113291907514451        0        
C1        C        0.875        0.018519        0.05113291907514451        0        
C2        C        0.9062500000000001        0.074075        0.05113291907514451        0        
C3        C        0.875        0.092592        0.05113291907514451        0        
C4        C        0.9062500000000001        0.037037        0.05113291907514451        0        
C1        C        0.875        0.12963        0.05113291907514451        0        
C2        C        0.9062500000000001        0.185185        0.05113291907514451        0        
C3        C        0.875        0.203703        0.05113291907514451        0        
C4        C        0.9062500000000001        0.148148        0.05113291907514451        0        
C1        C        0.875        0.24074099999999998        0.05113291907514451        0        
C2        C        0.9062500000000001        0.296297        0.05113291907514451        0        
C3        C        0.875        0.314815        0.05113291907514451        0        
C4        C        0.9062500000000001        0.259259        0.05113291907514451        0        
C1        C        0.875        0.351852        0.05113291907514451        0        
C2        C        0.9062500000000001        0.407408        0.05113291907514451        0        
C3        C        0.875        0.42592500000000005        0.05113291907514451        0        
C4        C        0.9062500000000001        0.37037        0.05113291907514451        0        
C1        C        0.875        0.46296300000000007        0.05113291907514451        0        
C2        C        0.9062500000000001        0.518519        0.05113291907514451        0        
C3        C        0.875        0.537037        0.05113291907514451        0        
C4        C        0.9062500000000001        0.481481        0.05113291907514451        0        
C1        C        0.875        0.574075        0.05113291907514451        0        
C2        C        0.9062500000000001        0.62963        0.05113291907514451        0        
C3        C        0.875        0.648148        0.05113291907514451        0        
C4        C        0.9062500000000001        0.592592        0.05113291907514451        0        
C1        C        0.9375        0.018519        0.05113291907514451        0        
C2        C        0.9687500000000001        0.074075        0.05113291907514451        0        
C3        C        0.9375        0.092592        0.05113291907514451        0        
C4        C        0.9687500000000001        0.037037        0.05113291907514451        0        
C1        C        0.9375        0.12963        0.05113291907514451        0        
C2        C        0.9687500000000001        0.185185        0.05113291907514451        0        
C3        C        0.9375        0.203703        0.05113291907514451        0        
C4        C        0.9687500000000001        0.148148        0.05113291907514451        0        
C1        C        0.9375        0.24074099999999998        0.05113291907514451        0        
C2        C        0.9687500000000001        0.296297        0.05113291907514451        0        
C3        C        0.9375        0.314815        0.05113291907514451        0        
C4        C        0.9687500000000001        0.259259        0.05113291907514451        0        
C1        C        0.9375        0.351852        0.05113291907514451        0        
C2        C        0.9687500000000001        0.407408        0.05113291907514451        0        
C3        C        0.9375        0.42592500000000005        0.05113291907514451        0        
C4        C        0.9687500000000001        0.37037        0.05113291907514451        0        
C1        C        0.9375        0.46296300000000007        0.05113291907514451        0        
C2        C        0.9687500000000001        0.518519        0.05113291907514451        0        
C3        C        0.9375        0.537037        0.05113291907514451        0        
C4        C        0.9687500000000001        0.481481        0.05113291907514451        0        
C1        C        0.9375        0.574075        0.05113291907514451        0        
C2        C        0.9687500000000001        0.62963        0.05113291907514451        0        
C3        C        0.9375        0.648148        0.05113291907514451        0        
C4        C        0.9687500000000001        0.592592        0.05113291907514451        0        
C1        C        0.0        0.685186        0.05113291907514451        0        
C1        C        0.0625        0.685186        0.05113291907514451        0        
C1        C        0.125        0.685186        0.05113291907514451        0        
C1        C        0.1875        0.685186        0.05113291907514451        0        
C1        C        0.25        0.685186        0.05113291907514451        0        
C1        C        0.3125        0.685186        0.05113291907514451        0        
C1        C        0.375        0.685186        0.05113291907514451        0        
C1        C        0.4375        0.685186        0.05113291907514451        0        
C1        C        0.5        0.685186        0.05113291907514451        0        
C1        C        0.5625        0.685186        0.05113291907514451        0        
C1        C        0.625        0.685186        0.05113291907514451        0        
C1        C        0.6875        0.685186        0.05113291907514451        0        
C1        C        0.75        0.685186        0.05113291907514451        0        
C1        C        0.8125        0.685186        0.05113291907514451        0        
C1        C        0.875        0.685186        0.05113291907514451        0        
C1        C        0.9375        0.685186        0.05113291907514451        0        
C2        C        0.03125        0.740741        0.05113291907514451        0        
C2        C        0.09375        0.740741        0.05113291907514451        0        
C2        C        0.15625        0.740741        0.05113291907514451        0        
C2        C        0.21875        0.740741        0.05113291907514451        0        
C2        C        0.28125        0.740741        0.05113291907514451        0        
C2        C        0.34375        0.740741        0.05113291907514451        0        
C2        C        0.40625        0.740741        0.05113291907514451        0        
C2        C        0.46875        0.740741        0.05113291907514451        0        
C2        C        0.53125        0.740741        0.05113291907514451        0        
C2        C        0.59375        0.740741        0.05113291907514451        0        
C2        C        0.65625        0.740741        0.05113291907514451        0        
C2        C        0.71875        0.740741        0.05113291907514451        0        
C2        C        0.78125        0.740741        0.05113291907514451        0        
C2        C        0.84375        0.740741        0.05113291907514451        0        
C2        C        0.9062500000000001        0.740741        0.05113291907514451        0        
C2        C        0.9687500000000001        0.740741        0.05113291907514451        0        
C3        C        0.0        0.759259        0.05113291907514451        0        
C3        C        0.0625        0.759259        0.05113291907514451        0        
C3        C        0.125        0.759259        0.05113291907514451        0        
C3        C        0.1875        0.759259        0.05113291907514451        0        
C3        C        0.25        0.759259        0.05113291907514451        0        
C3        C        0.3125        0.759259        0.05113291907514451        0        
C3        C        0.375        0.759259        0.05113291907514451        0        
C3        C        0.4375        0.759259        0.05113291907514451        0        
C3        C        0.5        0.759259        0.05113291907514451        0        
C3        C        0.5625        0.759259        0.05113291907514451        0        
C3        C        0.625        0.759259        0.05113291907514451        0        
C3        C        0.6875        0.759259        0.05113291907514451        0        
C3        C        0.75        0.759259        0.05113291907514451        0        
C3        C        0.8125        0.759259        0.05113291907514451        0        
C3        C        0.875        0.759259        0.05113291907514451        0        
C3        C        0.9375        0.759259        0.05113291907514451        0        
C4        C        0.03125        0.703703        0.05113291907514451        0        
C4        C        0.09375        0.703703        0.05113291907514451        0        
C4        C        0.15625        0.703703        0.05113291907514451        0        
C4        C        0.21875        0.703703        0.05113291907514451        0        
C4        C        0.28125        0.703703        0.05113291907514451        0        
C4        C        0.34375        0.703703        0.05113291907514451        0        
C4        C        0.40625        0.703703        0.05113291907514451        0        
C4        C        0.46875        0.703703        0.05113291907514451        0        
C4        C        0.53125        0.703703        0.05113291907514451        0        
C4        C        0.59375        0.703703        0.05113291907514451        0        
C4        C        0.65625        0.703703        0.05113291907514451        0        
C4        C        0.71875        0.703703        0.05113291907514451        0        
C4        C        0.78125        0.703703        0.05113291907514451        0        
C4        C        0.84375        0.703703        0.05113291907514451        0        
C4        C        0.9062500000000001        0.703703        0.05113291907514451        0        
C4        C        0.9687500000000001        0.703703        0.05113291907514451        0        
C1        C        0.0        0.796297        0.05113291907514451        0        
C1        C        0.0625        0.796297        0.05113291907514451        0        
C1        C        0.125        0.796297        0.05113291907514451        0        
C1        C        0.1875        0.796297        0.05113291907514451        0        
C1        C        0.25        0.796297        0.05113291907514451        0        
C1        C        0.3125        0.796297        0.05113291907514451        0        
C1        C        0.375        0.796297        0.05113291907514451        0        
C1        C        0.4375        0.796297        0.05113291907514451        0        
C1        C        0.5        0.796297        0.05113291907514451        0        
C1        C        0.5625        0.796297        0.05113291907514451        0        
C1        C        0.625        0.796297        0.05113291907514451        0        
C1        C        0.6875        0.796297        0.05113291907514451        0        
C1        C        0.75        0.796297        0.05113291907514451        0        
C1        C        0.8125        0.796297        0.05113291907514451        0        
C1        C        0.875        0.796297        0.05113291907514451        0        
C1        C        0.9375        0.796297        0.05113291907514451        0        
C2        C        0.03125        0.851852        0.05113291907514451        0        
C2        C        0.09375        0.851852        0.05113291907514451        0        
C2        C        0.15625        0.851852        0.05113291907514451        0        
C2        C        0.21875        0.851852        0.05113291907514451        0        
C2        C        0.28125        0.851852        0.05113291907514451        0        
C2        C        0.34375        0.851852        0.05113291907514451        0        
C2        C        0.40625        0.851852        0.05113291907514451        0        
C2        C        0.46875        0.851852        0.05113291907514451        0        
C2        C        0.53125        0.851852        0.05113291907514451        0        
C2        C        0.59375        0.851852        0.05113291907514451        0        
C2        C        0.65625        0.851852        0.05113291907514451        0        
C2        C        0.71875        0.851852        0.05113291907514451        0        
C2        C        0.78125        0.851852        0.05113291907514451        0        
C2        C        0.84375        0.851852        0.05113291907514451        0        
C2        C        0.9062500000000001        0.851852        0.05113291907514451        0        
C2        C        0.9687500000000001        0.851852        0.05113291907514451        0        
C3        C        0.0        0.87037        0.05113291907514451        0        
C3        C        0.0625        0.87037        0.05113291907514451        0        
C3        C        0.125        0.87037        0.05113291907514451        0        
C3        C        0.1875        0.87037        0.05113291907514451        0        
C3        C        0.25        0.87037        0.05113291907514451        0        
C3        C        0.3125        0.87037        0.05113291907514451        0        
C3        C        0.375        0.87037        0.05113291907514451        0        
C3        C        0.4375        0.87037        0.05113291907514451        0        
C3        C        0.5        0.87037        0.05113291907514451        0        
C3        C        0.5625        0.87037        0.05113291907514451        0        
C3        C        0.625        0.87037        0.05113291907514451        0        
C3        C        0.6875        0.87037        0.05113291907514451        0        
C3        C        0.75        0.87037        0.05113291907514451        0        
C3        C        0.8125        0.87037        0.05113291907514451        0        
C3        C        0.875        0.87037        0.05113291907514451        0        
C3        C        0.9375        0.87037        0.05113291907514451        0        
C4        C        0.03125        0.814814        0.05113291907514451        0        
C4        C        0.09375        0.814814        0.05113291907514451        0        
C4        C        0.15625        0.814814        0.05113291907514451        0        
C4        C        0.21875        0.814814        0.05113291907514451        0        
C4        C        0.28125        0.814814        0.05113291907514451        0        
C4        C        0.34375        0.814814        0.05113291907514451        0        
C4        C        0.40625        0.814814        0.05113291907514451        0        
C4        C        0.46875        0.814814        0.05113291907514451        0        
C4        C        0.53125        0.814814        0.05113291907514451        0        
C4        C        0.59375        0.814814        0.05113291907514451        0        
C4        C        0.65625        0.814814        0.05113291907514451        0        
C4        C        0.71875        0.814814        0.05113291907514451        0        
C4        C        0.78125        0.814814        0.05113291907514451        0        
C4        C        0.84375        0.814814        0.05113291907514451        0        
C4        C        0.9062500000000001        0.814814        0.05113291907514451        0        
C4        C        0.9687500000000001        0.814814        0.05113291907514451        0        
C1        C        0.0        0.907408        0.05113291907514451        0        
C1        C        0.0625        0.907408        0.05113291907514451        0        
C1        C        0.125        0.907408        0.05113291907514451        0        
C1        C        0.1875        0.907408        0.05113291907514451        0        
C1        C        0.25        0.907408        0.05113291907514451        0        
C1        C        0.3125        0.907408        0.05113291907514451        0        
C1        C        0.375        0.907408        0.05113291907514451        0        
C1        C        0.4375        0.907408        0.05113291907514451        0        
C1        C        0.5        0.907408        0.05113291907514451        0        
C1        C        0.5625        0.907408        0.05113291907514451        0        
C1        C        0.625        0.907408        0.05113291907514451        0        
C1        C        0.6875        0.907408        0.05113291907514451        0        
C1        C        0.75        0.907408        0.05113291907514451        0        
C1        C        0.8125        0.907408        0.05113291907514451        0        
C1        C        0.875        0.907408        0.05113291907514451        0        
C1        C        0.9375        0.907408        0.05113291907514451        0        
C2        C        0.03125        0.962963        0.05113291907514451        0        
C2        C        0.09375        0.962963        0.05113291907514451        0        
C2        C        0.15625        0.962963        0.05113291907514451        0        
C2        C        0.21875        0.962963        0.05113291907514451        0        
C2        C        0.28125        0.962963        0.05113291907514451        0        
C2        C        0.34375        0.962963        0.05113291907514451        0        
C2        C        0.40625        0.962963        0.05113291907514451        0        
C2        C        0.46875        0.962963        0.05113291907514451        0        
C2        C        0.53125        0.962963        0.05113291907514451        0        
C2        C        0.59375        0.962963        0.05113291907514451        0        
C2        C        0.65625        0.962963        0.05113291907514451        0        
C2        C        0.71875        0.962963        0.05113291907514451        0        
C2        C        0.78125        0.962963        0.05113291907514451        0        
C2        C        0.84375        0.962963        0.05113291907514451        0        
C2        C        0.9062500000000001        0.962963        0.05113291907514451        0        
C2        C        0.9687500000000001        0.962963        0.05113291907514451        0        
C3        C        0.0        0.9814809999999999        0.05113291907514451        0        
C3        C        0.0625        0.9814809999999999        0.05113291907514451        0        
C3        C        0.125        0.9814809999999999        0.05113291907514451        0        
C3        C        0.1875        0.9814809999999999        0.05113291907514451        0        
C3        C        0.25        0.9814809999999999        0.05113291907514451        0        
C3        C        0.3125        0.9814809999999999        0.05113291907514451        0        
C3        C        0.375        0.9814809999999999        0.05113291907514451        0        
C3        C        0.4375        0.9814809999999999        0.05113291907514451        0        
C3        C        0.5        0.9814809999999999        0.05113291907514451        0        
C3        C        0.5625        0.9814809999999999        0.05113291907514451        0        
C3        C        0.625        0.9814809999999999        0.05113291907514451        0        
C3        C        0.6875        0.9814809999999999        0.05113291907514451        0        
C3        C        0.75        0.9814809999999999        0.05113291907514451        0        
C3        C        0.8125        0.9814809999999999        0.05113291907514451        0        
C3        C        0.875        0.9814809999999999        0.05113291907514451        0        
C3        C        0.9375        0.9814809999999999        0.05113291907514451        0        
C4        C        0.03125        0.925925        0.05113291907514451        0        
C4        C        0.09375        0.925925        0.05113291907514451        0        
C4        C        0.15625        0.925925        0.05113291907514451        0        
C4        C        0.21875        0.925925        0.05113291907514451        0        
C4        C        0.28125        0.925925        0.05113291907514451        0        
C4        C        0.34375        0.925925        0.05113291907514451        0        
C4        C        0.40625        0.925925        0.05113291907514451        0        
C4        C        0.46875        0.925925        0.05113291907514451        0        
C4        C        0.53125        0.925925        0.05113291907514451        0        
C4        C        0.59375        0.925925        0.05113291907514451        0        
C4        C        0.65625        0.925925        0.05113291907514451        0        
C4        C        0.71875        0.925925        0.05113291907514451        0        
C4        C        0.78125        0.925925        0.05113291907514451        0        
C4        C        0.84375        0.925925        0.05113291907514451        0        
C4        C        0.9062500000000001        0.925925        0.05113291907514451        0        
C4        C        0.9687500000000001        0.925925        0.05113291907514451        0        
C1        C        0.0        0.018519        0.14795391907514452        0        
C2        C        0.03125        0.074075        0.14795391907514452        0        
C3        C        0.0        0.092592        0.14795391907514452        0        
C4        C        0.03125        0.037037        0.14795391907514452        0        
C1        C        0.0        0.12963        0.14795391907514452        0        
C2        C        0.03125        0.185185        0.14795391907514452        0        
C3        C        0.0        0.203703        0.14795391907514452        0        
C4        C        0.03125        0.148148        0.14795391907514452        0        
C1        C        0.0        0.24074099999999998        0.14795391907514452        0        
C2        C        0.03125        0.296297        0.14795391907514452        0        
C3        C        0.0        0.314815        0.14795391907514452        0        
C4        C        0.03125        0.259259        0.14795391907514452        0        
C1        C        0.0        0.351852        0.14795391907514452        0        
C2        C        0.03125        0.407408        0.14795391907514452        0        
C3        C        0.0        0.42592500000000005        0.14795391907514452        0        
C4        C        0.03125        0.37037        0.14795391907514452        0        
C1        C        0.0        0.46296300000000007        0.14795391907514452        0        
C2        C        0.03125        0.518519        0.14795391907514452        0        
C3        C        0.0        0.537037        0.14795391907514452        0        
C4        C        0.03125        0.481481        0.14795391907514452        0        
C1        C        0.0        0.574075        0.14795391907514452        0        
C2        C        0.03125        0.62963        0.14795391907514452        0        
C3        C        0.0        0.648148        0.14795391907514452        0        
C4        C        0.03125        0.592592        0.14795391907514452        0        
C1        C        0.0625        0.018519        0.14795391907514452        0        
C2        C        0.09375        0.074075        0.14795391907514452        0        
C3        C        0.0625        0.092592        0.14795391907514452        0        
C4        C        0.09375        0.037037        0.14795391907514452        0        
C1        C        0.0625        0.12963        0.14795391907514452        0        
C2        C        0.09375        0.185185        0.14795391907514452        0        
C3        C        0.0625        0.203703        0.14795391907514452        0        
C4        C        0.09375        0.148148        0.14795391907514452        0        
C1        C        0.0625        0.24074099999999998        0.14795391907514452        0        
C2        C        0.09375        0.296297        0.14795391907514452        0        
C3        C        0.0625        0.314815        0.14795391907514452        0        
C4        C        0.09375        0.259259        0.14795391907514452        0        
C1        C        0.0625        0.351852        0.14795391907514452        0        
C2        C        0.09375        0.407408        0.14795391907514452        0        
C3        C        0.0625        0.42592500000000005        0.14795391907514452        0        
C4        C        0.09375        0.37037        0.14795391907514452        0        
C1        C        0.0625        0.46296300000000007        0.14795391907514452        0        
C2        C        0.09375        0.518519        0.14795391907514452        0        
C3        C        0.0625        0.537037        0.14795391907514452        0        
C4        C        0.09375        0.481481        0.14795391907514452        0        
C1        C        0.0625        0.574075        0.14795391907514452        0        
C2        C        0.09375        0.62963        0.14795391907514452        0        
C3        C        0.0625        0.648148        0.14795391907514452        0        
C4        C        0.09375        0.592592        0.14795391907514452        0        
C1        C        0.125        0.018519        0.14795391907514452        0        
C2        C        0.15625        0.074075        0.14795391907514452        0        
C3        C        0.125        0.092592        0.14795391907514452        0        
C4        C        0.15625        0.037037        0.14795391907514452        0        
C1        C        0.125        0.12963        0.14795391907514452        0        
C2        C        0.15625        0.185185        0.14795391907514452        0        
C3        C        0.125        0.203703        0.14795391907514452        0        
C4        C        0.15625        0.148148        0.14795391907514452        0        
C1        C        0.125        0.24074099999999998        0.14795391907514452        0        
C2        C        0.15625        0.296297        0.14795391907514452        0        
C3        C        0.125        0.314815        0.14795391907514452        0        
C4        C        0.15625        0.259259        0.14795391907514452        0        
C1        C        0.125        0.351852        0.14795391907514452        0        
C2        C        0.15625        0.407408        0.14795391907514452        0        
C3        C        0.125        0.42592500000000005        0.14795391907514452        0        
C4        C        0.15625        0.37037        0.14795391907514452        0        
C1        C        0.125        0.46296300000000007        0.14795391907514452        0        
C2        C        0.15625        0.518519        0.14795391907514452        0        
C3        C        0.125        0.537037        0.14795391907514452        0        
C4        C        0.15625        0.481481        0.14795391907514452        0        
C1        C        0.125        0.574075        0.14795391907514452        0        
C2        C        0.15625        0.62963        0.14795391907514452        0        
C3        C        0.125        0.648148        0.14795391907514452        0        
C4        C        0.15625        0.592592        0.14795391907514452        0        
C1        C        0.1875        0.018519        0.14795391907514452        0        
C2        C        0.21875        0.074075        0.14795391907514452        0        
C3        C        0.1875        0.092592        0.14795391907514452        0        
C4        C        0.21875        0.037037        0.14795391907514452        0        
C1        C        0.1875        0.12963        0.14795391907514452        0        
C2        C        0.21875        0.185185        0.14795391907514452        0        
C3        C        0.1875        0.203703        0.14795391907514452        0        
C4        C        0.21875        0.148148        0.14795391907514452        0        
C1        C        0.1875        0.24074099999999998        0.14795391907514452        0        
C2        C        0.21875        0.296297        0.14795391907514452        0        
C3        C        0.1875        0.314815        0.14795391907514452        0        
C4        C        0.21875        0.259259        0.14795391907514452        0        
C1        C        0.1875        0.351852        0.14795391907514452        0        
C2        C        0.21875        0.407408        0.14795391907514452        0        
C3        C        0.1875        0.42592500000000005        0.14795391907514452        0        
C4        C        0.21875        0.37037        0.14795391907514452        0        
C1        C        0.1875        0.46296300000000007        0.14795391907514452        0        
C2        C        0.21875        0.518519        0.14795391907514452        0        
C3        C        0.1875        0.537037        0.14795391907514452        0        
C4        C        0.21875        0.481481        0.14795391907514452        0        
C1        C        0.1875        0.574075        0.14795391907514452        0        
C2        C        0.21875        0.62963        0.14795391907514452        0        
C3        C        0.1875        0.648148        0.14795391907514452        0        
C4        C        0.21875        0.592592        0.14795391907514452        0        
C1        C        0.25        0.018519        0.14795391907514452        0        
C2        C        0.28125        0.074075        0.14795391907514452        0        
C3        C        0.25        0.092592        0.14795391907514452        0        
C4        C        0.28125        0.037037        0.14795391907514452        0        
C1        C        0.25        0.12963        0.14795391907514452        0        
C2        C        0.28125        0.185185        0.14795391907514452        0        
C3        C        0.25        0.203703        0.14795391907514452        0        
C4        C        0.28125        0.148148        0.14795391907514452        0        
C1        C        0.25        0.24074099999999998        0.14795391907514452        0        
C2        C        0.28125        0.296297        0.14795391907514452        0        
C3        C        0.25        0.314815        0.14795391907514452        0        
C4        C        0.28125        0.259259        0.14795391907514452        0        
C1        C        0.25        0.351852        0.14795391907514452        0        
C2        C        0.28125        0.407408        0.14795391907514452        0        
C3        C        0.25        0.42592500000000005        0.14795391907514452        0        
C4        C        0.28125        0.37037        0.14795391907514452        0        
C1        C        0.25        0.46296300000000007        0.14795391907514452        0        
C2        C        0.28125        0.518519        0.14795391907514452        0        
C3        C        0.25        0.537037        0.14795391907514452        0        
C4        C        0.28125        0.481481        0.14795391907514452        0        
C1        C        0.25        0.574075        0.14795391907514452        0        
C2        C        0.28125        0.62963        0.14795391907514452        0        
C3        C        0.25        0.648148        0.14795391907514452        0        
C4        C        0.28125        0.592592        0.14795391907514452        0        
C1        C        0.3125        0.018519        0.14795391907514452        0        
C2        C        0.34375        0.074075        0.14795391907514452        0        
C3        C        0.3125        0.092592        0.14795391907514452        0        
C4        C        0.34375        0.037037        0.14795391907514452        0        
C1        C        0.3125        0.12963        0.14795391907514452        0        
C2        C        0.34375        0.185185        0.14795391907514452        0        
C3        C        0.3125        0.203703        0.14795391907514452        0        
C4        C        0.34375        0.148148        0.14795391907514452        0        
C1        C        0.3125        0.24074099999999998        0.14795391907514452        0        
C2        C        0.34375        0.296297        0.14795391907514452        0        
C3        C        0.3125        0.314815        0.14795391907514452        0        
C4        C        0.34375        0.259259        0.14795391907514452        0        
C1        C        0.3125        0.351852        0.14795391907514452        0        
C2        C        0.34375        0.407408        0.14795391907514452        0        
C3        C        0.3125        0.42592500000000005        0.14795391907514452        0        
C4        C        0.34375        0.37037        0.14795391907514452        0        
C1        C        0.3125        0.46296300000000007        0.14795391907514452        0        
C2        C        0.34375        0.518519        0.14795391907514452        0        
C3        C        0.3125        0.537037        0.14795391907514452        0        
C4        C        0.34375        0.481481        0.14795391907514452        0        
C1        C        0.3125        0.574075        0.14795391907514452        0        
C2        C        0.34375        0.62963        0.14795391907514452        0        
C3        C        0.3125        0.648148        0.14795391907514452        0        
C4        C        0.34375        0.592592        0.14795391907514452        0        
C1        C        0.375        0.018519        0.14795391907514452        0        
C2        C        0.40625        0.074075        0.14795391907514452        0        
C3        C        0.375        0.092592        0.14795391907514452        0        
C4        C        0.40625        0.037037        0.14795391907514452        0        
C1        C        0.375        0.12963        0.14795391907514452        0        
C2        C        0.40625        0.185185        0.14795391907514452        0        
C3        C        0.375        0.203703        0.14795391907514452        0        
C4        C        0.40625        0.148148        0.14795391907514452        0        
C1        C        0.375        0.24074099999999998        0.14795391907514452        0        
C2        C        0.40625        0.296297        0.14795391907514452        0        
C3        C        0.375        0.314815        0.14795391907514452        0        
C4        C        0.40625        0.259259        0.14795391907514452        0        
C1        C        0.375        0.351852        0.14795391907514452        0        
C2        C        0.40625        0.407408        0.14795391907514452        0        
C3        C        0.375        0.42592500000000005        0.14795391907514452        0        
C4        C        0.40625        0.37037        0.14795391907514452        0        
C1        C        0.375        0.46296300000000007        0.14795391907514452        0        
C2        C        0.40625        0.518519        0.14795391907514452        0        
C3        C        0.375        0.537037        0.14795391907514452        0        
C4        C        0.40625        0.481481        0.14795391907514452        0        
C1        C        0.375        0.574075        0.14795391907514452        0        
C2        C        0.40625        0.62963        0.14795391907514452        0        
C3        C        0.375        0.648148        0.14795391907514452        0        
C4        C        0.40625        0.592592        0.14795391907514452        0        
C1        C        0.4375        0.018519        0.14795391907514452        0        
C2        C        0.46875        0.074075        0.14795391907514452        0        
C3        C        0.4375        0.092592        0.14795391907514452        0        
C4        C        0.46875        0.037037        0.14795391907514452        0        
C1        C        0.4375        0.12963        0.14795391907514452        0        
C2        C        0.46875        0.185185        0.14795391907514452        0        
C3        C        0.4375        0.203703        0.14795391907514452        0        
C4        C        0.46875        0.148148        0.14795391907514452        0        
C1        C        0.4375        0.24074099999999998        0.14795391907514452        0        
C2        C        0.46875        0.296297        0.14795391907514452        0        
C3        C        0.4375        0.314815        0.14795391907514452        0        
C4        C        0.46875        0.259259        0.14795391907514452        0        
C1        C        0.4375        0.351852        0.14795391907514452        0        
C2        C        0.46875        0.407408        0.14795391907514452        0        
C3        C        0.4375        0.42592500000000005        0.14795391907514452        0        
C4        C        0.46875        0.37037        0.14795391907514452        0        
C1        C        0.4375        0.46296300000000007        0.14795391907514452        0        
C2        C        0.46875        0.518519        0.14795391907514452        0        
C3        C        0.4375        0.537037        0.14795391907514452        0        
C4        C        0.46875        0.481481        0.14795391907514452        0        
C1        C        0.4375        0.574075        0.14795391907514452        0        
C2        C        0.46875        0.62963        0.14795391907514452        0        
C3        C        0.4375        0.648148        0.14795391907514452        0        
C4        C        0.46875        0.592592        0.14795391907514452        0        
C1        C        0.5        0.018519        0.14795391907514452        0        
C2        C        0.53125        0.074075        0.14795391907514452        0        
C3        C        0.5        0.092592        0.14795391907514452        0        
C4        C        0.53125        0.037037        0.14795391907514452        0        
C1        C        0.5        0.12963        0.14795391907514452        0        
C2        C        0.53125        0.185185        0.14795391907514452        0        
C3        C        0.5        0.203703        0.14795391907514452        0        
C4        C        0.53125        0.148148        0.14795391907514452        0        
C1        C        0.5        0.24074099999999998        0.14795391907514452        0        
C2        C        0.53125        0.296297        0.14795391907514452        0        
C3        C        0.5        0.314815        0.14795391907514452        0        
C4        C        0.53125        0.259259        0.14795391907514452        0        
C1        C        0.5        0.351852        0.14795391907514452        0        
C2        C        0.53125        0.407408        0.14795391907514452        0        
C3        C        0.5        0.42592500000000005        0.14795391907514452        0        
C4        C        0.53125        0.37037        0.14795391907514452        0        
C1        C        0.5        0.46296300000000007        0.14795391907514452        0        
C2        C        0.53125        0.518519        0.14795391907514452        0        
C3        C        0.5        0.537037        0.14795391907514452        0        
C4        C        0.53125        0.481481        0.14795391907514452        0        
C1        C        0.5        0.574075        0.14795391907514452        0        
C2        C        0.53125        0.62963        0.14795391907514452        0        
C3        C        0.5        0.648148        0.14795391907514452        0        
C4        C        0.53125        0.592592        0.14795391907514452        0        
C1        C        0.5625        0.018519        0.14795391907514452        0        
C2        C        0.59375        0.074075        0.14795391907514452        0        
C3        C        0.5625        0.092592        0.14795391907514452        0        
C4        C        0.59375        0.037037        0.14795391907514452        0        
C1        C        0.5625        0.12963        0.14795391907514452        0        
C2        C        0.59375        0.185185        0.14795391907514452        0        
C3        C        0.5625        0.203703        0.14795391907514452        0        
C4        C        0.59375        0.148148        0.14795391907514452        0        
C1        C        0.5625        0.24074099999999998        0.14795391907514452        0        
C2        C        0.59375        0.296297        0.14795391907514452        0        
C3        C        0.5625        0.314815        0.14795391907514452        0        
C4        C        0.59375        0.259259        0.14795391907514452        0        
C1        C        0.5625        0.351852        0.14795391907514452        0        
C2        C        0.59375        0.407408        0.14795391907514452        0        
C3        C        0.5625        0.42592500000000005        0.14795391907514452        0        
C4        C        0.59375        0.37037        0.14795391907514452        0        
C1        C        0.5625        0.46296300000000007        0.14795391907514452        0        
C2        C        0.59375        0.518519        0.14795391907514452        0        
C3        C        0.5625        0.537037        0.14795391907514452        0        
C4        C        0.59375        0.481481        0.14795391907514452        0        
C1        C        0.5625        0.574075        0.14795391907514452        0        
C2        C        0.59375        0.62963        0.14795391907514452        0        
C3        C        0.5625        0.648148        0.14795391907514452        0        
C4        C        0.59375        0.592592        0.14795391907514452        0        
C1        C        0.625        0.018519        0.14795391907514452        0        
C2        C        0.65625        0.074075        0.14795391907514452        0        
C3        C        0.625        0.092592        0.14795391907514452        0        
C4        C        0.65625        0.037037        0.14795391907514452        0        
C1        C        0.625        0.12963        0.14795391907514452        0        
C2        C        0.65625        0.185185        0.14795391907514452        0        
C3        C        0.625        0.203703        0.14795391907514452        0        
C4        C        0.65625        0.148148        0.14795391907514452        0        
C1        C        0.625        0.24074099999999998        0.14795391907514452        0        
C2        C        0.65625        0.296297        0.14795391907514452        0        
C3        C        0.625        0.314815        0.14795391907514452        0        
C4        C        0.65625        0.259259        0.14795391907514452        0        
C1        C        0.625        0.351852        0.14795391907514452        0        
C2        C        0.65625        0.407408        0.14795391907514452        0        
C3        C        0.625        0.42592500000000005        0.14795391907514452        0        
C4        C        0.65625        0.37037        0.14795391907514452        0        
C1        C        0.625        0.46296300000000007        0.14795391907514452        0        
C2        C        0.65625        0.518519        0.14795391907514452        0        
C3        C        0.625        0.537037        0.14795391907514452        0        
C4        C        0.65625        0.481481        0.14795391907514452        0        
C1        C        0.625        0.574075        0.14795391907514452        0        
C2        C        0.65625        0.62963        0.14795391907514452        0        
C3        C        0.625        0.648148        0.14795391907514452        0        
C4        C        0.65625        0.592592        0.14795391907514452        0        
C1        C        0.6875        0.018519        0.14795391907514452        0        
C2        C        0.71875        0.074075        0.14795391907514452        0        
C3        C        0.6875        0.092592        0.14795391907514452        0        
C4        C        0.71875        0.037037        0.14795391907514452        0        
C1        C        0.6875        0.12963        0.14795391907514452        0        
C2        C        0.71875        0.185185        0.14795391907514452        0        
C3        C        0.6875        0.203703        0.14795391907514452        0        
C4        C        0.71875        0.148148        0.14795391907514452        0        
C1        C        0.6875        0.24074099999999998        0.14795391907514452        0        
C2        C        0.71875        0.296297        0.14795391907514452        0        
C3        C        0.6875        0.314815        0.14795391907514452        0        
C4        C        0.71875        0.259259        0.14795391907514452        0        
C1        C        0.6875        0.351852        0.14795391907514452        0        
C2        C        0.71875        0.407408        0.14795391907514452        0        
C3        C        0.6875        0.42592500000000005        0.14795391907514452        0        
C4        C        0.71875        0.37037        0.14795391907514452        0        
C1        C        0.6875        0.46296300000000007        0.14795391907514452        0        
C2        C        0.71875        0.518519        0.14795391907514452        0        
C3        C        0.6875        0.537037        0.14795391907514452        0        
C4        C        0.71875        0.481481        0.14795391907514452        0        
C1        C        0.6875        0.574075        0.14795391907514452        0        
C2        C        0.71875        0.62963        0.14795391907514452        0        
C3        C        0.6875        0.648148        0.14795391907514452        0        
C4        C        0.71875        0.592592        0.14795391907514452        0        
C1        C        0.75        0.018519        0.14795391907514452        0        
C2        C        0.78125        0.074075        0.14795391907514452        0        
C3        C        0.75        0.092592        0.14795391907514452        0        
C4        C        0.78125        0.037037        0.14795391907514452        0        
C1        C        0.75        0.12963        0.14795391907514452        0        
C2        C        0.78125        0.185185        0.14795391907514452        0        
C3        C        0.75        0.203703        0.14795391907514452        0        
C4        C        0.78125        0.148148        0.14795391907514452        0        
C1        C        0.75        0.24074099999999998        0.14795391907514452        0        
C2        C        0.78125        0.296297        0.14795391907514452        0        
C3        C        0.75        0.314815        0.14795391907514452        0        
C4        C        0.78125        0.259259        0.14795391907514452        0        
C1        C        0.75        0.351852        0.14795391907514452        0        
C2        C        0.78125        0.407408        0.14795391907514452        0        
C3        C        0.75        0.42592500000000005        0.14795391907514452        0        
C4        C        0.78125        0.37037        0.14795391907514452        0        
C1        C        0.75        0.46296300000000007        0.14795391907514452        0        
C2        C        0.78125        0.518519        0.14795391907514452        0        
C3        C        0.75        0.537037        0.14795391907514452        0        
C4        C        0.78125        0.481481        0.14795391907514452        0        
C1        C        0.75        0.574075        0.14795391907514452        0        
C2        C        0.78125        0.62963        0.14795391907514452        0        
C3        C        0.75        0.648148        0.14795391907514452        0        
C4        C        0.78125        0.592592        0.14795391907514452        0        
C1        C        0.8125        0.018519        0.14795391907514452        0        
C2        C        0.84375        0.074075        0.14795391907514452        0        
C3        C        0.8125        0.092592        0.14795391907514452        0        
C4        C        0.84375        0.037037        0.14795391907514452        0        
C1        C        0.8125        0.12963        0.14795391907514452        0        
C2        C        0.84375        0.185185        0.14795391907514452        0        
C3        C        0.8125        0.203703        0.14795391907514452        0        
C4        C        0.84375        0.148148        0.14795391907514452        0        
C1        C        0.8125        0.24074099999999998        0.14795391907514452        0        
C2        C        0.84375        0.296297        0.14795391907514452        0        
C3        C        0.8125        0.314815        0.14795391907514452        0        
C4        C        0.84375        0.259259        0.14795391907514452        0        
C1        C        0.8125        0.351852        0.14795391907514452        0        
C2        C        0.84375        0.407408        0.14795391907514452        0        
C3        C        0.8125        0.42592500000000005        0.14795391907514452        0        
C4        C        0.84375        0.37037        0.14795391907514452        0        
C1        C        0.8125        0.46296300000000007        0.14795391907514452        0        
C2        C        0.84375        0.518519        0.14795391907514452        0        
C3        C        0.8125        0.537037        0.14795391907514452        0        
C4        C        0.84375        0.481481        0.14795391907514452        0        
C1        C        0.8125        0.574075        0.14795391907514452        0        
C2        C        0.84375        0.62963        0.14795391907514452        0        
C3        C        0.8125        0.648148        0.14795391907514452        0        
C4        C        0.84375        0.592592        0.14795391907514452        0        
C1        C        0.875        0.018519        0.14795391907514452        0        
C2        C        0.9062500000000001        0.074075        0.14795391907514452        0        
C3        C        0.875        0.092592        0.14795391907514452        0        
C4        C        0.9062500000000001        0.037037        0.14795391907514452        0        
C1        C        0.875        0.12963        0.14795391907514452        0        
C2        C        0.9062500000000001        0.185185        0.14795391907514452        0        
C3        C        0.875        0.203703        0.14795391907514452        0        
C4        C        0.9062500000000001        0.148148        0.14795391907514452        0        
C1        C        0.875        0.24074099999999998        0.14795391907514452        0        
C2        C        0.9062500000000001        0.296297        0.14795391907514452        0        
C3        C        0.875        0.314815        0.14795391907514452        0        
C4        C        0.9062500000000001        0.259259        0.14795391907514452        0        
C1        C        0.875        0.351852        0.14795391907514452        0        
C2        C        0.9062500000000001        0.407408        0.14795391907514452        0        
C3        C        0.875        0.42592500000000005        0.14795391907514452        0        
C4        C        0.9062500000000001        0.37037        0.14795391907514452        0        
C1        C        0.875        0.46296300000000007        0.14795391907514452        0        
C2        C        0.9062500000000001        0.518519        0.14795391907514452        0        
C3        C        0.875        0.537037        0.14795391907514452        0        
C4        C        0.9062500000000001        0.481481        0.14795391907514452        0        
C1        C        0.875        0.574075        0.14795391907514452        0        
C2        C        0.9062500000000001        0.62963        0.14795391907514452        0        
C3        C        0.875        0.648148        0.14795391907514452        0        
C4        C        0.9062500000000001        0.592592        0.14795391907514452        0        
C1        C        0.9375        0.018519        0.14795391907514452        0        
C2        C        0.9687500000000001        0.074075        0.14795391907514452        0        
C3        C        0.9375        0.092592        0.14795391907514452        0        
C4        C        0.9687500000000001        0.037037        0.14795391907514452        0        
C1        C        0.9375        0.12963        0.14795391907514452        0        
C2        C        0.9687500000000001        0.185185        0.14795391907514452        0        
C3        C        0.9375        0.203703        0.14795391907514452        0        
C4        C        0.9687500000000001        0.148148        0.14795391907514452        0        
C1        C        0.9375        0.24074099999999998        0.14795391907514452        0        
C2        C        0.9687500000000001        0.296297        0.14795391907514452        0        
C3        C        0.9375        0.314815        0.14795391907514452        0        
C4        C        0.9687500000000001        0.259259        0.14795391907514452        0        
C1        C        0.9375        0.351852        0.14795391907514452        0        
C2        C        0.9687500000000001        0.407408        0.14795391907514452        0        
C3        C        0.9375        0.42592500000000005        0.14795391907514452        0        
C4        C        0.9687500000000001        0.37037        0.14795391907514452        0        
C1        C        0.9375        0.46296300000000007        0.14795391907514452        0        
C2        C        0.9687500000000001        0.518519        0.14795391907514452        0        
C3        C        0.9375        0.537037        0.14795391907514452        0        
C4        C        0.9687500000000001        0.481481        0.14795391907514452        0        
C1        C        0.9375        0.574075        0.14795391907514452        0        
C2        C        0.9687500000000001        0.62963        0.14795391907514452        0        
C3        C        0.9375        0.648148        0.14795391907514452        0        
C4        C        0.9687500000000001        0.592592        0.14795391907514452        0        
C1        C        0.0        0.685186        0.14795391907514452        0        
C1        C        0.0625        0.685186        0.14795391907514452        0        
C1        C        0.125        0.685186        0.14795391907514452        0        
C1        C        0.1875        0.685186        0.14795391907514452        0        
C1        C        0.25        0.685186        0.14795391907514452        0        
C1        C        0.3125        0.685186        0.14795391907514452        0        
C1        C        0.375        0.685186        0.14795391907514452        0        
C1        C        0.4375        0.685186        0.14795391907514452        0        
C1        C        0.5        0.685186        0.14795391907514452        0        
C1        C        0.5625        0.685186        0.14795391907514452        0        
C1        C        0.625        0.685186        0.14795391907514452        0        
C1        C        0.6875        0.685186        0.14795391907514452        0        
C1        C        0.75        0.685186        0.14795391907514452        0        
C1        C        0.8125        0.685186        0.14795391907514452        0        
C1        C        0.875        0.685186        0.14795391907514452        0        
C1        C        0.9375        0.685186        0.14795391907514452        0        
C2        C        0.03125        0.740741        0.14795391907514452        0        
C2        C        0.09375        0.740741        0.14795391907514452        0        
C2        C        0.15625        0.740741        0.14795391907514452        0        
C2        C        0.21875        0.740741        0.14795391907514452        0        
C2        C        0.28125        0.740741        0.14795391907514452        0        
C2        C        0.34375        0.740741        0.14795391907514452        0        
C2        C        0.40625        0.740741        0.14795391907514452        0        
C2        C        0.46875        0.740741        0.14795391907514452        0        
C2        C        0.53125        0.740741        0.14795391907514452        0        
C2        C        0.59375        0.740741        0.14795391907514452        0        
C2        C        0.65625        0.740741        0.14795391907514452        0        
C2        C        0.71875        0.740741        0.14795391907514452        0        
C2        C        0.78125        0.740741        0.14795391907514452        0        
C2        C        0.84375        0.740741        0.14795391907514452        0        
C2        C        0.9062500000000001        0.740741        0.14795391907514452        0        
C2        C        0.9687500000000001        0.740741        0.14795391907514452        0        
C3        C        0.0        0.759259        0.14795391907514452        0        
C3        C        0.0625        0.759259        0.14795391907514452        0        
C3        C        0.125        0.759259        0.14795391907514452        0        
C3        C        0.1875        0.759259        0.14795391907514452        0        
C3        C        0.25        0.759259        0.14795391907514452        0        
C3        C        0.3125        0.759259        0.14795391907514452        0        
C3        C        0.375        0.759259        0.14795391907514452        0        
C3        C        0.4375        0.759259        0.14795391907514452        0        
C3        C        0.5        0.759259        0.14795391907514452        0        
C3        C        0.5625        0.759259        0.14795391907514452        0        
C3        C        0.625        0.759259        0.14795391907514452        0        
C3        C        0.6875        0.759259        0.14795391907514452        0        
C3        C        0.75        0.759259        0.14795391907514452        0        
C3        C        0.8125        0.759259        0.14795391907514452        0        
C3        C        0.875        0.759259        0.14795391907514452        0        
C3        C        0.9375        0.759259        0.14795391907514452        0        
C4        C        0.03125        0.703703        0.14795391907514452        0        
C4        C        0.09375        0.703703        0.14795391907514452        0        
C4        C        0.15625        0.703703        0.14795391907514452        0        
C4        C        0.21875        0.703703        0.14795391907514452        0        
C4        C        0.28125        0.703703        0.14795391907514452        0        
C4        C        0.34375        0.703703        0.14795391907514452        0        
C4        C        0.40625        0.703703        0.14795391907514452        0        
C4        C        0.46875        0.703703        0.14795391907514452        0        
C4        C        0.53125        0.703703        0.14795391907514452        0        
C4        C        0.59375        0.703703        0.14795391907514452        0        
C4        C        0.65625        0.703703        0.14795391907514452        0        
C4        C        0.71875        0.703703        0.14795391907514452        0        
C4        C        0.78125        0.703703        0.14795391907514452        0        
C4        C        0.84375        0.703703        0.14795391907514452        0        
C4        C        0.9062500000000001        0.703703        0.14795391907514452        0        
C4        C        0.9687500000000001        0.703703        0.14795391907514452        0        
C1        C        0.0        0.796297        0.14795391907514452        0        
C1        C        0.0625        0.796297        0.14795391907514452        0        
C1        C        0.125        0.796297        0.14795391907514452        0        
C1        C        0.1875        0.796297        0.14795391907514452        0        
C1        C        0.25        0.796297        0.14795391907514452        0        
C1        C        0.3125        0.796297        0.14795391907514452        0        
C1        C        0.375        0.796297        0.14795391907514452        0        
C1        C        0.4375        0.796297        0.14795391907514452        0        
C1        C        0.5        0.796297        0.14795391907514452        0        
C1        C        0.5625        0.796297        0.14795391907514452        0        
C1        C        0.625        0.796297        0.14795391907514452        0        
C1        C        0.6875        0.796297        0.14795391907514452        0        
C1        C        0.75        0.796297        0.14795391907514452        0        
C1        C        0.8125        0.796297        0.14795391907514452        0        
C1        C        0.875        0.796297        0.14795391907514452        0        
C1        C        0.9375        0.796297        0.14795391907514452        0        
C2        C        0.03125        0.851852        0.14795391907514452        0        
C2        C        0.09375        0.851852        0.14795391907514452        0        
C2        C        0.15625        0.851852        0.14795391907514452        0        
C2        C        0.21875        0.851852        0.14795391907514452        0        
C2        C        0.28125        0.851852        0.14795391907514452        0        
C2        C        0.34375        0.851852        0.14795391907514452        0        
C2        C        0.40625        0.851852        0.14795391907514452        0        
C2        C        0.46875        0.851852        0.14795391907514452        0        
C2        C        0.53125        0.851852        0.14795391907514452        0        
C2        C        0.59375        0.851852        0.14795391907514452        0        
C2        C        0.65625        0.851852        0.14795391907514452        0        
C2        C        0.71875        0.851852        0.14795391907514452        0        
C2        C        0.78125        0.851852        0.14795391907514452        0        
C2        C        0.84375        0.851852        0.14795391907514452        0        
C2        C        0.9062500000000001        0.851852        0.14795391907514452        0        
C2        C        0.9687500000000001        0.851852        0.14795391907514452        0        
C3        C        0.0        0.87037        0.14795391907514452        0        
C3        C        0.0625        0.87037        0.14795391907514452        0        
C3        C        0.125        0.87037        0.14795391907514452        0        
C3        C        0.1875        0.87037        0.14795391907514452        0        
C3        C        0.25        0.87037        0.14795391907514452        0        
C3        C        0.3125        0.87037        0.14795391907514452        0        
C3        C        0.375        0.87037        0.14795391907514452        0        
C3        C        0.4375        0.87037        0.14795391907514452        0        
C3        C        0.5        0.87037        0.14795391907514452        0        
C3        C        0.5625        0.87037        0.14795391907514452        0        
C3        C        0.625        0.87037        0.14795391907514452        0        
C3        C        0.6875        0.87037        0.14795391907514452        0        
C3        C        0.75        0.87037        0.14795391907514452        0        
C3        C        0.8125        0.87037        0.14795391907514452        0        
C3        C        0.875        0.87037        0.14795391907514452        0        
C3        C        0.9375        0.87037        0.14795391907514452        0        
C4        C        0.03125        0.814814        0.14795391907514452        0        
C4        C        0.09375        0.814814        0.14795391907514452        0        
C4        C        0.15625        0.814814        0.14795391907514452        0        
C4        C        0.21875        0.814814        0.14795391907514452        0        
C4        C        0.28125        0.814814        0.14795391907514452        0        
C4        C        0.34375        0.814814        0.14795391907514452        0        
C4        C        0.40625        0.814814        0.14795391907514452        0        
C4        C        0.46875        0.814814        0.14795391907514452        0        
C4        C        0.53125        0.814814        0.14795391907514452        0        
C4        C        0.59375        0.814814        0.14795391907514452        0        
C4        C        0.65625        0.814814        0.14795391907514452        0        
C4        C        0.71875        0.814814        0.14795391907514452        0        
C4        C        0.78125        0.814814        0.14795391907514452        0        
C4        C        0.84375        0.814814        0.14795391907514452        0        
C4        C        0.9062500000000001        0.814814        0.14795391907514452        0        
C4        C        0.9687500000000001        0.814814        0.14795391907514452        0        
C1        C        0.0        0.907408        0.14795391907514452        0        
C1        C        0.0625        0.907408        0.14795391907514452        0        
C1        C        0.125        0.907408        0.14795391907514452        0        
C1        C        0.1875        0.907408        0.14795391907514452        0        
C1        C        0.25        0.907408        0.14795391907514452        0        
C1        C        0.3125        0.907408        0.14795391907514452        0        
C1        C        0.375        0.907408        0.14795391907514452        0        
C1        C        0.4375        0.907408        0.14795391907514452        0        
C1        C        0.5        0.907408        0.14795391907514452        0        
C1        C        0.5625        0.907408        0.14795391907514452        0        
C1        C        0.625        0.907408        0.14795391907514452        0        
C1        C        0.6875        0.907408        0.14795391907514452        0        
C1        C        0.75        0.907408        0.14795391907514452        0        
C1        C        0.8125        0.907408        0.14795391907514452        0        
C1        C        0.875        0.907408        0.14795391907514452        0        
C1        C        0.9375        0.907408        0.14795391907514452        0        
C2        C        0.03125        0.962963        0.14795391907514452        0        
C2        C        0.09375        0.962963        0.14795391907514452        0        
C2        C        0.15625        0.962963        0.14795391907514452        0        
C2        C        0.21875        0.962963        0.14795391907514452        0        
C2        C        0.28125        0.962963        0.14795391907514452        0        
C2        C        0.34375        0.962963        0.14795391907514452        0        
C2        C        0.40625        0.962963        0.14795391907514452        0        
C2        C        0.46875        0.962963        0.14795391907514452        0        
C2        C        0.53125        0.962963        0.14795391907514452        0        
C2        C        0.59375        0.962963        0.14795391907514452        0        
C2        C        0.65625        0.962963        0.14795391907514452        0        
C2        C        0.71875        0.962963        0.14795391907514452        0        
C2        C        0.78125        0.962963        0.14795391907514452        0        
C2        C        0.84375        0.962963        0.14795391907514452        0        
C2        C        0.9062500000000001        0.962963        0.14795391907514452        0        
C2        C        0.9687500000000001        0.962963        0.14795391907514452        0        
C3        C        0.0        0.9814809999999999        0.14795391907514452        0        
C3        C        0.0625        0.9814809999999999        0.14795391907514452        0        
C3        C        0.125        0.9814809999999999        0.14795391907514452        0        
C3        C        0.1875        0.9814809999999999        0.14795391907514452        0        
C3        C        0.25        0.9814809999999999        0.14795391907514452        0        
C3        C        0.3125        0.9814809999999999        0.14795391907514452        0        
C3        C        0.375        0.9814809999999999        0.14795391907514452        0        
C3        C        0.4375        0.9814809999999999        0.14795391907514452        0        
C3        C        0.5        0.9814809999999999        0.14795391907514452        0        
C3        C        0.5625        0.9814809999999999        0.14795391907514452        0        
C3        C        0.625        0.9814809999999999        0.14795391907514452        0        
C3        C        0.6875        0.9814809999999999        0.14795391907514452        0        
C3        C        0.75        0.9814809999999999        0.14795391907514452        0        
C3        C        0.8125        0.9814809999999999        0.14795391907514452        0        
C3        C        0.875        0.9814809999999999        0.14795391907514452        0        
C3        C        0.9375        0.9814809999999999        0.14795391907514452        0        
C4        C        0.03125        0.925925        0.14795391907514452        0        
C4        C        0.09375        0.925925        0.14795391907514452        0        
C4        C        0.15625        0.925925        0.14795391907514452        0        
C4        C        0.21875        0.925925        0.14795391907514452        0        
C4        C        0.28125        0.925925        0.14795391907514452        0        
C4        C        0.34375        0.925925        0.14795391907514452        0        
C4        C        0.40625        0.925925        0.14795391907514452        0        
C4        C        0.46875        0.925925        0.14795391907514452        0        
C4        C        0.53125        0.925925        0.14795391907514452        0        
C4        C        0.59375        0.925925        0.14795391907514452        0        
C4        C        0.65625        0.925925        0.14795391907514452        0        
C4        C        0.71875        0.925925        0.14795391907514452        0        
C4        C        0.78125        0.925925        0.14795391907514452        0        
C4        C        0.84375        0.925925        0.14795391907514452        0        
C4        C        0.9062500000000001        0.925925        0.14795391907514452        0        
C4        C        0.9687500000000001        0.925925        0.14795391907514452        0        
C1        C        0.0        0.018519        0.24477491907514454        0        
C2        C        0.03125        0.074075        0.24477491907514454        0        
C3        C        0.0        0.092592        0.24477491907514454        0        
C4        C        0.03125        0.037037        0.24477491907514454        0        
C1        C        0.0        0.12963        0.24477491907514454        0        
C2        C        0.03125        0.185185        0.24477491907514454        0        
C3        C        0.0        0.203703        0.24477491907514454        0        
C4        C        0.03125        0.148148        0.24477491907514454        0        
C1        C        0.0        0.24074099999999998        0.24477491907514454        0        
C2        C        0.03125        0.296297        0.24477491907514454        0        
C3        C        0.0        0.314815        0.24477491907514454        0        
C4        C        0.03125        0.259259        0.24477491907514454        0        
C1        C        0.0        0.351852        0.24477491907514454        0        
C2        C        0.03125        0.407408        0.24477491907514454        0        
C3        C        0.0        0.42592500000000005        0.24477491907514454        0        
C4        C        0.03125        0.37037        0.24477491907514454        0        
C1        C        0.0        0.46296300000000007        0.24477491907514454        0        
C2        C        0.03125        0.518519        0.24477491907514454        0        
C3        C        0.0        0.537037        0.24477491907514454        0        
C4        C        0.03125        0.481481        0.24477491907514454        0        
C1        C        0.0        0.574075        0.24477491907514454        0        
C2        C        0.03125        0.62963        0.24477491907514454        0        
C3        C        0.0        0.648148        0.24477491907514454        0        
C4        C        0.03125        0.592592        0.24477491907514454        0        
C1        C        0.0625        0.018519        0.24477491907514454        0        
C2        C        0.09375        0.074075        0.24477491907514454        0        
C3        C        0.0625        0.092592        0.24477491907514454        0        
C4        C        0.09375        0.037037        0.24477491907514454        0        
C1        C        0.0625        0.12963        0.24477491907514454        0        
C2        C        0.09375        0.185185        0.24477491907514454        0        
C3        C        0.0625        0.203703        0.24477491907514454        0        
C4        C        0.09375        0.148148        0.24477491907514454        0        
C1        C        0.0625        0.24074099999999998        0.24477491907514454        0        
C2        C        0.09375        0.296297        0.24477491907514454        0        
C3        C        0.0625        0.314815        0.24477491907514454        0        
C4        C        0.09375        0.259259        0.24477491907514454        0        
C1        C        0.0625        0.351852        0.24477491907514454        0        
C2        C        0.09375        0.407408        0.24477491907514454        0        
C3        C        0.0625        0.42592500000000005        0.24477491907514454        0        
C4        C        0.09375        0.37037        0.24477491907514454        0        
C1        C        0.0625        0.46296300000000007        0.24477491907514454        0        
C2        C        0.09375        0.518519        0.24477491907514454        0        
C3        C        0.0625        0.537037        0.24477491907514454        0        
C4        C        0.09375        0.481481        0.24477491907514454        0        
C1        C        0.0625        0.574075        0.24477491907514454        0        
C2        C        0.09375        0.62963        0.24477491907514454        0        
C3        C        0.0625        0.648148        0.24477491907514454        0        
C4        C        0.09375        0.592592        0.24477491907514454        0        
C1        C        0.125        0.018519        0.24477491907514454        0        
C2        C        0.15625        0.074075        0.24477491907514454        0        
C3        C        0.125        0.092592        0.24477491907514454        0        
C4        C        0.15625        0.037037        0.24477491907514454        0        
C1        C        0.125        0.12963        0.24477491907514454        0        
C2        C        0.15625        0.185185        0.24477491907514454        0        
C3        C        0.125        0.203703        0.24477491907514454        0        
C4        C        0.15625        0.148148        0.24477491907514454        0        
C1        C        0.125        0.24074099999999998        0.24477491907514454        0        
C2        C        0.15625        0.296297        0.24477491907514454        0        
C3        C        0.125        0.314815        0.24477491907514454        0        
C4        C        0.15625        0.259259        0.24477491907514454        0        
C1        C        0.125        0.351852        0.24477491907514454        0        
C2        C        0.15625        0.407408        0.24477491907514454        0        
C3        C        0.125        0.42592500000000005        0.24477491907514454        0        
C4        C        0.15625        0.37037        0.24477491907514454        0        
C1        C        0.125        0.46296300000000007        0.24477491907514454        0        
C2        C        0.15625        0.518519        0.24477491907514454        0        
C3        C        0.125        0.537037        0.24477491907514454        0        
C4        C        0.15625        0.481481        0.24477491907514454        0        
C1        C        0.125        0.574075        0.24477491907514454        0        
C2        C        0.15625        0.62963        0.24477491907514454        0        
C3        C        0.125        0.648148        0.24477491907514454        0        
C4        C        0.15625        0.592592        0.24477491907514454        0        
C1        C        0.1875        0.018519        0.24477491907514454        0        
C2        C        0.21875        0.074075        0.24477491907514454        0        
C3        C        0.1875        0.092592        0.24477491907514454        0        
C4        C        0.21875        0.037037        0.24477491907514454        0        
C1        C        0.1875        0.12963        0.24477491907514454        0        
C2        C        0.21875        0.185185        0.24477491907514454        0        
C3        C        0.1875        0.203703        0.24477491907514454        0        
C4        C        0.21875        0.148148        0.24477491907514454        0        
C1        C        0.1875        0.24074099999999998        0.24477491907514454        0        
C2        C        0.21875        0.296297        0.24477491907514454        0        
C3        C        0.1875        0.314815        0.24477491907514454        0        
C4        C        0.21875        0.259259        0.24477491907514454        0        
C1        C        0.1875        0.351852        0.24477491907514454        0        
C2        C        0.21875        0.407408        0.24477491907514454        0        
C3        C        0.1875        0.42592500000000005        0.24477491907514454        0        
C4        C        0.21875        0.37037        0.24477491907514454        0        
C1        C        0.1875        0.46296300000000007        0.24477491907514454        0        
C2        C        0.21875        0.518519        0.24477491907514454        0        
C3        C        0.1875        0.537037        0.24477491907514454        0        
C4        C        0.21875        0.481481        0.24477491907514454        0        
C1        C        0.1875        0.574075        0.24477491907514454        0        
C2        C        0.21875        0.62963        0.24477491907514454        0        
C3        C        0.1875        0.648148        0.24477491907514454        0        
C4        C        0.21875        0.592592        0.24477491907514454        0        
C1        C        0.25        0.018519        0.24477491907514454        0        
C2        C        0.28125        0.074075        0.24477491907514454        0        
C3        C        0.25        0.092592        0.24477491907514454        0        
C4        C        0.28125        0.037037        0.24477491907514454        0        
C1        C        0.25        0.12963        0.24477491907514454        0        
C2        C        0.28125        0.185185        0.24477491907514454        0        
C3        C        0.25        0.203703        0.24477491907514454        0        
C4        C        0.28125        0.148148        0.24477491907514454        0        
C1        C        0.25        0.24074099999999998        0.24477491907514454        0        
C2        C        0.28125        0.296297        0.24477491907514454        0        
C3        C        0.25        0.314815        0.24477491907514454        0        
C4        C        0.28125        0.259259        0.24477491907514454        0        
C1        C        0.25        0.351852        0.24477491907514454        0        
C2        C        0.28125        0.407408        0.24477491907514454        0        
C3        C        0.25        0.42592500000000005        0.24477491907514454        0        
C4        C        0.28125        0.37037        0.24477491907514454        0        
C1        C        0.25        0.46296300000000007        0.24477491907514454        0        
C2        C        0.28125        0.518519        0.24477491907514454        0        
C3        C        0.25        0.537037        0.24477491907514454        0        
C4        C        0.28125        0.481481        0.24477491907514454        0        
C1        C        0.25        0.574075        0.24477491907514454        0        
C2        C        0.28125        0.62963        0.24477491907514454        0        
C3        C        0.25        0.648148        0.24477491907514454        0        
C4        C        0.28125        0.592592        0.24477491907514454        0        
C1        C        0.3125        0.018519        0.24477491907514454        0        
C2        C        0.34375        0.074075        0.24477491907514454        0        
C3        C        0.3125        0.092592        0.24477491907514454        0        
C4        C        0.34375        0.037037        0.24477491907514454        0        
C1        C        0.3125        0.12963        0.24477491907514454        0        
C2        C        0.34375        0.185185        0.24477491907514454        0        
C3        C        0.3125        0.203703        0.24477491907514454        0        
C4        C        0.34375        0.148148        0.24477491907514454        0        
C1        C        0.3125        0.24074099999999998        0.24477491907514454        0        
C2        C        0.34375        0.296297        0.24477491907514454        0        
C3        C        0.3125        0.314815        0.24477491907514454        0        
C4        C        0.34375        0.259259        0.24477491907514454        0        
C1        C        0.3125        0.351852        0.24477491907514454        0        
C2        C        0.34375        0.407408        0.24477491907514454        0        
C3        C        0.3125        0.42592500000000005        0.24477491907514454        0        
C4        C        0.34375        0.37037        0.24477491907514454        0        
C1        C        0.3125        0.46296300000000007        0.24477491907514454        0        
C2        C        0.34375        0.518519        0.24477491907514454        0        
C3        C        0.3125        0.537037        0.24477491907514454        0        
C4        C        0.34375        0.481481        0.24477491907514454        0        
C1        C        0.3125        0.574075        0.24477491907514454        0        
C2        C        0.34375        0.62963        0.24477491907514454        0        
C3        C        0.3125        0.648148        0.24477491907514454        0        
C4        C        0.34375        0.592592        0.24477491907514454        0        
C1        C        0.375        0.018519        0.24477491907514454        0        
C2        C        0.40625        0.074075        0.24477491907514454        0        
C3        C        0.375        0.092592        0.24477491907514454        0        
C4        C        0.40625        0.037037        0.24477491907514454        0        
C1        C        0.375        0.12963        0.24477491907514454        0        
C2        C        0.40625        0.185185        0.24477491907514454        0        
C3        C        0.375        0.203703        0.24477491907514454        0        
C4        C        0.40625        0.148148        0.24477491907514454        0        
C1        C        0.375        0.24074099999999998        0.24477491907514454        0        
C2        C        0.40625        0.296297        0.24477491907514454        0        
C3        C        0.375        0.314815        0.24477491907514454        0        
C4        C        0.40625        0.259259        0.24477491907514454        0        
C1        C        0.375        0.351852        0.24477491907514454        0        
C2        C        0.40625        0.407408        0.24477491907514454        0        
C3        C        0.375        0.42592500000000005        0.24477491907514454        0        
C4        C        0.40625        0.37037        0.24477491907514454        0        
C1        C        0.375        0.46296300000000007        0.24477491907514454        0        
C2        C        0.40625        0.518519        0.24477491907514454        0        
C3        C        0.375        0.537037        0.24477491907514454        0        
C4        C        0.40625        0.481481        0.24477491907514454        0        
C1        C        0.375        0.574075        0.24477491907514454        0        
C2        C        0.40625        0.62963        0.24477491907514454        0        
C3        C        0.375        0.648148        0.24477491907514454        0        
C4        C        0.40625        0.592592        0.24477491907514454        0        
C1        C        0.4375        0.018519        0.24477491907514454        0        
C2        C        0.46875        0.074075        0.24477491907514454        0        
C3        C        0.4375        0.092592        0.24477491907514454        0        
C4        C        0.46875        0.037037        0.24477491907514454        0        
C1        C        0.4375        0.12963        0.24477491907514454        0        
C2        C        0.46875        0.185185        0.24477491907514454        0        
C3        C        0.4375        0.203703        0.24477491907514454        0        
C4        C        0.46875        0.148148        0.24477491907514454        0        
C1        C        0.4375        0.24074099999999998        0.24477491907514454        0        
C2        C        0.46875        0.296297        0.24477491907514454        0        
C3        C        0.4375        0.314815        0.24477491907514454        0        
C4        C        0.46875        0.259259        0.24477491907514454        0        
C1        C        0.4375        0.351852        0.24477491907514454        0        
C2        C        0.46875        0.407408        0.24477491907514454        0        
C3        C        0.4375        0.42592500000000005        0.24477491907514454        0        
C4        C        0.46875        0.37037        0.24477491907514454        0        
C1        C        0.4375        0.46296300000000007        0.24477491907514454        0        
C2        C        0.46875        0.518519        0.24477491907514454        0        
C3        C        0.4375        0.537037        0.24477491907514454        0        
C4        C        0.46875        0.481481        0.24477491907514454        0        
C1        C        0.4375        0.574075        0.24477491907514454        0        
C2        C        0.46875        0.62963        0.24477491907514454        0        
C3        C        0.4375        0.648148        0.24477491907514454        0        
C4        C        0.46875        0.592592        0.24477491907514454        0        
C1        C        0.5        0.018519        0.24477491907514454        0        
C2        C        0.53125        0.074075        0.24477491907514454        0        
C3        C        0.5        0.092592        0.24477491907514454        0        
C4        C        0.53125        0.037037        0.24477491907514454        0        
C1        C        0.5        0.12963        0.24477491907514454        0        
C2        C        0.53125        0.185185        0.24477491907514454        0        
C3        C        0.5        0.203703        0.24477491907514454        0        
C4        C        0.53125        0.148148        0.24477491907514454        0        
C1        C        0.5        0.24074099999999998        0.24477491907514454        0        
C2        C        0.53125        0.296297        0.24477491907514454        0        
C3        C        0.5        0.314815        0.24477491907514454        0        
C4        C        0.53125        0.259259        0.24477491907514454        0        
C1        C        0.5        0.351852        0.24477491907514454        0        
C2        C        0.53125        0.407408        0.24477491907514454        0        
C3        C        0.5        0.42592500000000005        0.24477491907514454        0        
C4        C        0.53125        0.37037        0.24477491907514454        0        
C1        C        0.5        0.46296300000000007        0.24477491907514454        0        
C2        C        0.53125        0.518519        0.24477491907514454        0        
C3        C        0.5        0.537037        0.24477491907514454        0        
C4        C        0.53125        0.481481        0.24477491907514454        0        
C1        C        0.5        0.574075        0.24477491907514454        0        
C2        C        0.53125        0.62963        0.24477491907514454        0        
C3        C        0.5        0.648148        0.24477491907514454        0        
C4        C        0.53125        0.592592        0.24477491907514454        0        
C1        C        0.5625        0.018519        0.24477491907514454        0        
C2        C        0.59375        0.074075        0.24477491907514454        0        
C3        C        0.5625        0.092592        0.24477491907514454        0        
C4        C        0.59375        0.037037        0.24477491907514454        0        
C1        C        0.5625        0.12963        0.24477491907514454        0        
C2        C        0.59375        0.185185        0.24477491907514454        0        
C3        C        0.5625        0.203703        0.24477491907514454        0        
C4        C        0.59375        0.148148        0.24477491907514454        0        
C1        C        0.5625        0.24074099999999998        0.24477491907514454        0        
C2        C        0.59375        0.296297        0.24477491907514454        0        
C3        C        0.5625        0.314815        0.24477491907514454        0        
C4        C        0.59375        0.259259        0.24477491907514454        0        
C1        C        0.5625        0.351852        0.24477491907514454        0        
C2        C        0.59375        0.407408        0.24477491907514454        0        
C3        C        0.5625        0.42592500000000005        0.24477491907514454        0        
C4        C        0.59375        0.37037        0.24477491907514454        0        
C1        C        0.5625        0.46296300000000007        0.24477491907514454        0        
C2        C        0.59375        0.518519        0.24477491907514454        0        
C3        C        0.5625        0.537037        0.24477491907514454        0        
C4        C        0.59375        0.481481        0.24477491907514454        0        
C1        C        0.5625        0.574075        0.24477491907514454        0        
C2        C        0.59375        0.62963        0.24477491907514454        0        
C3        C        0.5625        0.648148        0.24477491907514454        0        
C4        C        0.59375        0.592592        0.24477491907514454        0        
C1        C        0.625        0.018519        0.24477491907514454        0        
C2        C        0.65625        0.074075        0.24477491907514454        0        
C3        C        0.625        0.092592        0.24477491907514454        0        
C4        C        0.65625        0.037037        0.24477491907514454        0        
C1        C        0.625        0.12963        0.24477491907514454        0        
C2        C        0.65625        0.185185        0.24477491907514454        0        
C3        C        0.625        0.203703        0.24477491907514454        0        
C4        C        0.65625        0.148148        0.24477491907514454        0        
C1        C        0.625        0.24074099999999998        0.24477491907514454        0        
C2        C        0.65625        0.296297        0.24477491907514454        0        
C3        C        0.625        0.314815        0.24477491907514454        0        
C4        C        0.65625        0.259259        0.24477491907514454        0        
C1        C        0.625        0.351852        0.24477491907514454        0        
C2        C        0.65625        0.407408        0.24477491907514454        0        
C3        C        0.625        0.42592500000000005        0.24477491907514454        0        
C4        C        0.65625        0.37037        0.24477491907514454        0        
C1        C        0.625        0.46296300000000007        0.24477491907514454        0        
C2        C        0.65625        0.518519        0.24477491907514454        0        
C3        C        0.625        0.537037        0.24477491907514454        0        
C4        C        0.65625        0.481481        0.24477491907514454        0        
C1        C        0.625        0.574075        0.24477491907514454        0        
C2        C        0.65625        0.62963        0.24477491907514454        0        
C3        C        0.625        0.648148        0.24477491907514454        0        
C4        C        0.65625        0.592592        0.24477491907514454        0        
C1        C        0.6875        0.018519        0.24477491907514454        0        
C2        C        0.71875        0.074075        0.24477491907514454        0        
C3        C        0.6875        0.092592        0.24477491907514454        0        
C4        C        0.71875        0.037037        0.24477491907514454        0        
C1        C        0.6875        0.12963        0.24477491907514454        0        
C2        C        0.71875        0.185185        0.24477491907514454        0        
C3        C        0.6875        0.203703        0.24477491907514454        0        
C4        C        0.71875        0.148148        0.24477491907514454        0        
C1        C        0.6875        0.24074099999999998        0.24477491907514454        0        
C2        C        0.71875        0.296297        0.24477491907514454        0        
C3        C        0.6875        0.314815        0.24477491907514454        0        
C4        C        0.71875        0.259259        0.24477491907514454        0        
C1        C        0.6875        0.351852        0.24477491907514454        0        
C2        C        0.71875        0.407408        0.24477491907514454        0        
C3        C        0.6875        0.42592500000000005        0.24477491907514454        0        
C4        C        0.71875        0.37037        0.24477491907514454        0        
C1        C        0.6875        0.46296300000000007        0.24477491907514454        0        
C2        C        0.71875        0.518519        0.24477491907514454        0        
C3        C        0.6875        0.537037        0.24477491907514454        0        
C4        C        0.71875        0.481481        0.24477491907514454        0        
C1        C        0.6875        0.574075        0.24477491907514454        0        
C2        C        0.71875        0.62963        0.24477491907514454        0        
C3        C        0.6875        0.648148        0.24477491907514454        0        
C4        C        0.71875        0.592592        0.24477491907514454        0        
C1        C        0.75        0.018519        0.24477491907514454        0        
C2        C        0.78125        0.074075        0.24477491907514454        0        
C3        C        0.75        0.092592        0.24477491907514454        0        
C4        C        0.78125        0.037037        0.24477491907514454        0        
C1        C        0.75        0.12963        0.24477491907514454        0        
C2        C        0.78125        0.185185        0.24477491907514454        0        
C3        C        0.75        0.203703        0.24477491907514454        0        
C4        C        0.78125        0.148148        0.24477491907514454        0        
C1        C        0.75        0.24074099999999998        0.24477491907514454        0        
C2        C        0.78125        0.296297        0.24477491907514454        0        
C3        C        0.75        0.314815        0.24477491907514454        0        
C4        C        0.78125        0.259259        0.24477491907514454        0        
C1        C        0.75        0.351852        0.24477491907514454        0        
C2        C        0.78125        0.407408        0.24477491907514454        0        
C3        C        0.75        0.42592500000000005        0.24477491907514454        0        
C4        C        0.78125        0.37037        0.24477491907514454        0        
C1        C        0.75        0.46296300000000007        0.24477491907514454        0        
C2        C        0.78125        0.518519        0.24477491907514454        0        
C3        C        0.75        0.537037        0.24477491907514454        0        
C4        C        0.78125        0.481481        0.24477491907514454        0        
C1        C        0.75        0.574075        0.24477491907514454        0        
C2        C        0.78125        0.62963        0.24477491907514454        0        
C3        C        0.75        0.648148        0.24477491907514454        0        
C4        C        0.78125        0.592592        0.24477491907514454        0        
C1        C        0.8125        0.018519        0.24477491907514454        0        
C2        C        0.84375        0.074075        0.24477491907514454        0        
C3        C        0.8125        0.092592        0.24477491907514454        0        
C4        C        0.84375        0.037037        0.24477491907514454        0        
C1        C        0.8125        0.12963        0.24477491907514454        0        
C2        C        0.84375        0.185185        0.24477491907514454        0        
C3        C        0.8125        0.203703        0.24477491907514454        0        
C4        C        0.84375        0.148148        0.24477491907514454        0        
C1        C        0.8125        0.24074099999999998        0.24477491907514454        0        
C2        C        0.84375        0.296297        0.24477491907514454        0        
C3        C        0.8125        0.314815        0.24477491907514454        0        
C4        C        0.84375        0.259259        0.24477491907514454        0        
C1        C        0.8125        0.351852        0.24477491907514454        0        
C2        C        0.84375        0.407408        0.24477491907514454        0        
C3        C        0.8125        0.42592500000000005        0.24477491907514454        0        
C4        C        0.84375        0.37037        0.24477491907514454        0        
C1        C        0.8125        0.46296300000000007        0.24477491907514454        0        
C2        C        0.84375        0.518519        0.24477491907514454        0        
C3        C        0.8125        0.537037        0.24477491907514454        0        
C4        C        0.84375        0.481481        0.24477491907514454        0        
C1        C        0.8125        0.574075        0.24477491907514454        0        
C2        C        0.84375        0.62963        0.24477491907514454        0        
C3        C        0.8125        0.648148        0.24477491907514454        0        
C4        C        0.84375        0.592592        0.24477491907514454        0        
C1        C        0.875        0.018519        0.24477491907514454        0        
C2        C        0.9062500000000001        0.074075        0.24477491907514454        0        
C3        C        0.875        0.092592        0.24477491907514454        0        
C4        C        0.9062500000000001        0.037037        0.24477491907514454        0        
C1        C        0.875        0.12963        0.24477491907514454        0        
C2        C        0.9062500000000001        0.185185        0.24477491907514454        0        
C3        C        0.875        0.203703        0.24477491907514454        0        
C4        C        0.9062500000000001        0.148148        0.24477491907514454        0        
C1        C        0.875        0.24074099999999998        0.24477491907514454        0        
C2        C        0.9062500000000001        0.296297        0.24477491907514454        0        
C3        C        0.875        0.314815        0.24477491907514454        0        
C4        C        0.9062500000000001        0.259259        0.24477491907514454        0        
C1        C        0.875        0.351852        0.24477491907514454        0        
C2        C        0.9062500000000001        0.407408        0.24477491907514454        0        
C3        C        0.875        0.42592500000000005        0.24477491907514454        0        
C4        C        0.9062500000000001        0.37037        0.24477491907514454        0        
C1        C        0.875        0.46296300000000007        0.24477491907514454        0        
C2        C        0.9062500000000001        0.518519        0.24477491907514454        0        
C3        C        0.875        0.537037        0.24477491907514454        0        
C4        C        0.9062500000000001        0.481481        0.24477491907514454        0        
C1        C        0.875        0.574075        0.24477491907514454        0        
C2        C        0.9062500000000001        0.62963        0.24477491907514454        0        
C3        C        0.875        0.648148        0.24477491907514454        0        
C4        C        0.9062500000000001        0.592592        0.24477491907514454        0        
C1        C        0.9375        0.018519        0.24477491907514454        0        
C2        C        0.9687500000000001        0.074075        0.24477491907514454        0        
C3        C        0.9375        0.092592        0.24477491907514454        0        
C4        C        0.9687500000000001        0.037037        0.24477491907514454        0        
C1        C        0.9375        0.12963        0.24477491907514454        0        
C2        C        0.9687500000000001        0.185185        0.24477491907514454        0        
C3        C        0.9375        0.203703        0.24477491907514454        0        
C4        C        0.9687500000000001        0.148148        0.24477491907514454        0        
C1        C        0.9375        0.24074099999999998        0.24477491907514454        0        
C2        C        0.9687500000000001        0.296297        0.24477491907514454        0        
C3        C        0.9375        0.314815        0.24477491907514454        0        
C4        C        0.9687500000000001        0.259259        0.24477491907514454        0        
C1        C        0.9375        0.351852        0.24477491907514454        0        
C2        C        0.9687500000000001        0.407408        0.24477491907514454        0        
C3        C        0.9375        0.42592500000000005        0.24477491907514454        0        
C4        C        0.9687500000000001        0.37037        0.24477491907514454        0        
C1        C        0.9375        0.46296300000000007        0.24477491907514454        0        
C2        C        0.9687500000000001        0.518519        0.24477491907514454        0        
C3        C        0.9375        0.537037        0.24477491907514454        0        
C4        C        0.9687500000000001        0.481481        0.24477491907514454        0        
C1        C        0.9375        0.574075        0.24477491907514454        0        
C2        C        0.9687500000000001        0.62963        0.24477491907514454        0        
C3        C        0.9375        0.648148        0.24477491907514454        0        
C4        C        0.9687500000000001        0.592592        0.24477491907514454        0        
C1        C        0.0        0.685186        0.24477491907514454        0        
C1        C        0.0625        0.685186        0.24477491907514454        0        
C1        C        0.125        0.685186        0.24477491907514454        0        
C1        C        0.1875        0.685186        0.24477491907514454        0        
C1        C        0.25        0.685186        0.24477491907514454        0        
C1        C        0.3125        0.685186        0.24477491907514454        0        
C1        C        0.375        0.685186        0.24477491907514454        0        
C1        C        0.4375        0.685186        0.24477491907514454        0        
C1        C        0.5        0.685186        0.24477491907514454        0        
C1        C        0.5625        0.685186        0.24477491907514454        0        
C1        C        0.625        0.685186        0.24477491907514454        0        
C1        C        0.6875        0.685186        0.24477491907514454        0        
C1        C        0.75        0.685186        0.24477491907514454        0        
C1        C        0.8125        0.685186        0.24477491907514454        0        
C1        C        0.875        0.685186        0.24477491907514454        0        
C1        C        0.9375        0.685186        0.24477491907514454        0        
C2        C        0.03125        0.740741        0.24477491907514454        0        
C2        C        0.09375        0.740741        0.24477491907514454        0        
C2        C        0.15625        0.740741        0.24477491907514454        0        
C2        C        0.21875        0.740741        0.24477491907514454        0        
C2        C        0.28125        0.740741        0.24477491907514454        0        
C2        C        0.34375        0.740741        0.24477491907514454        0        
C2        C        0.40625        0.740741        0.24477491907514454        0        
C2        C        0.46875        0.740741        0.24477491907514454        0        
C2        C        0.53125        0.740741        0.24477491907514454        0        
C2        C        0.59375        0.740741        0.24477491907514454        0        
C2        C        0.65625        0.740741        0.24477491907514454        0        
C2        C        0.71875        0.740741        0.24477491907514454        0        
C2        C        0.78125        0.740741        0.24477491907514454        0        
C2        C        0.84375        0.740741        0.24477491907514454        0        
C2        C        0.9062500000000001        0.740741        0.24477491907514454        0        
C2        C        0.9687500000000001        0.740741        0.24477491907514454        0        
C3        C        0.0        0.759259        0.24477491907514454        0        
C3        C        0.0625        0.759259        0.24477491907514454        0        
C3        C        0.125        0.759259        0.24477491907514454        0        
C3        C        0.1875        0.759259        0.24477491907514454        0        
C3        C        0.25        0.759259        0.24477491907514454        0        
C3        C        0.3125        0.759259        0.24477491907514454        0        
C3        C        0.375        0.759259        0.24477491907514454        0        
C3        C        0.4375        0.759259        0.24477491907514454        0        
C3        C        0.5        0.759259        0.24477491907514454        0        
C3        C        0.5625        0.759259        0.24477491907514454        0        
C3        C        0.625        0.759259        0.24477491907514454        0        
C3        C        0.6875        0.759259        0.24477491907514454        0        
C3        C        0.75        0.759259        0.24477491907514454        0        
C3        C        0.8125        0.759259        0.24477491907514454        0        
C3        C        0.875        0.759259        0.24477491907514454        0        
C3        C        0.9375        0.759259        0.24477491907514454        0        
C4        C        0.03125        0.703703        0.24477491907514454        0        
C4        C        0.09375        0.703703        0.24477491907514454        0        
C4        C        0.15625        0.703703        0.24477491907514454        0        
C4        C        0.21875        0.703703        0.24477491907514454        0        
C4        C        0.28125        0.703703        0.24477491907514454        0        
C4        C        0.34375        0.703703        0.24477491907514454        0        
C4        C        0.40625        0.703703        0.24477491907514454        0        
C4        C        0.46875        0.703703        0.24477491907514454        0        
C4        C        0.53125        0.703703        0.24477491907514454        0        
C4        C        0.59375        0.703703        0.24477491907514454        0        
C4        C        0.65625        0.703703        0.24477491907514454        0        
C4        C        0.71875        0.703703        0.24477491907514454        0        
C4        C        0.78125        0.703703        0.24477491907514454        0        
C4        C        0.84375        0.703703        0.24477491907514454        0        
C4        C        0.9062500000000001        0.703703        0.24477491907514454        0        
C4        C        0.9687500000000001        0.703703        0.24477491907514454        0        
C1        C        0.0        0.796297        0.24477491907514454        0        
C1        C        0.0625        0.796297        0.24477491907514454        0        
C1        C        0.125        0.796297        0.24477491907514454        0        
C1        C        0.1875        0.796297        0.24477491907514454        0        
C1        C        0.25        0.796297        0.24477491907514454        0        
C1        C        0.3125        0.796297        0.24477491907514454        0        
C1        C        0.375        0.796297        0.24477491907514454        0        
C1        C        0.4375        0.796297        0.24477491907514454        0        
C1        C        0.5        0.796297        0.24477491907514454        0        
C1        C        0.5625        0.796297        0.24477491907514454        0        
C1        C        0.625        0.796297        0.24477491907514454        0        
C1        C        0.6875        0.796297        0.24477491907514454        0        
C1        C        0.75        0.796297        0.24477491907514454        0        
C1        C        0.8125        0.796297        0.24477491907514454        0        
C1        C        0.875        0.796297        0.24477491907514454        0        
C1        C        0.9375        0.796297        0.24477491907514454        0        
C2        C        0.03125        0.851852        0.24477491907514454        0        
C2        C        0.09375        0.851852        0.24477491907514454        0        
C2        C        0.15625        0.851852        0.24477491907514454        0        
C2        C        0.21875        0.851852        0.24477491907514454        0        
C2        C        0.28125        0.851852        0.24477491907514454        0        
C2        C        0.34375        0.851852        0.24477491907514454        0        
C2        C        0.40625        0.851852        0.24477491907514454        0        
C2        C        0.46875        0.851852        0.24477491907514454        0        
C2        C        0.53125        0.851852        0.24477491907514454        0        
C2        C        0.59375        0.851852        0.24477491907514454        0        
C2        C        0.65625        0.851852        0.24477491907514454        0        
C2        C        0.71875        0.851852        0.24477491907514454        0        
C2        C        0.78125        0.851852        0.24477491907514454        0        
C2        C        0.84375        0.851852        0.24477491907514454        0        
C2        C        0.9062500000000001        0.851852        0.24477491907514454        0        
C2        C        0.9687500000000001        0.851852        0.24477491907514454        0        
C3        C        0.0        0.87037        0.24477491907514454        0        
C3        C        0.0625        0.87037        0.24477491907514454        0        
C3        C        0.125        0.87037        0.24477491907514454        0        
C3        C        0.1875        0.87037        0.24477491907514454        0        
C3        C        0.25        0.87037        0.24477491907514454        0        
C3        C        0.3125        0.87037        0.24477491907514454        0        
C3        C        0.375        0.87037        0.24477491907514454        0        
C3        C        0.4375        0.87037        0.24477491907514454        0        
C3        C        0.5        0.87037        0.24477491907514454        0        
C3        C        0.5625        0.87037        0.24477491907514454        0        
C3        C        0.625        0.87037        0.24477491907514454        0        
C3        C        0.6875        0.87037        0.24477491907514454        0        
C3        C        0.75        0.87037        0.24477491907514454        0        
C3        C        0.8125        0.87037        0.24477491907514454        0        
C3        C        0.875        0.87037        0.24477491907514454        0        
C3        C        0.9375        0.87037        0.24477491907514454        0        
C4        C        0.03125        0.814814        0.24477491907514454        0        
C4        C        0.09375        0.814814        0.24477491907514454        0        
C4        C        0.15625        0.814814        0.24477491907514454        0        
C4        C        0.21875        0.814814        0.24477491907514454        0        
C4        C        0.28125        0.814814        0.24477491907514454        0        
C4        C        0.34375        0.814814        0.24477491907514454        0        
C4        C        0.40625        0.814814        0.24477491907514454        0        
C4        C        0.46875        0.814814        0.24477491907514454        0        
C4        C        0.53125        0.814814        0.24477491907514454        0        
C4        C        0.59375        0.814814        0.24477491907514454        0        
C4        C        0.65625        0.814814        0.24477491907514454        0        
C4        C        0.71875        0.814814        0.24477491907514454        0        
C4        C        0.78125        0.814814        0.24477491907514454        0        
C4        C        0.84375        0.814814        0.24477491907514454        0        
C4        C        0.9062500000000001        0.814814        0.24477491907514454        0        
C4        C        0.9687500000000001        0.814814        0.24477491907514454        0        
C1        C        0.0        0.907408        0.24477491907514454        0        
C1        C        0.0625        0.907408        0.24477491907514454        0        
C1        C        0.125        0.907408        0.24477491907514454        0        
C1        C        0.1875        0.907408        0.24477491907514454        0        
C1        C        0.25        0.907408        0.24477491907514454        0        
C1        C        0.3125        0.907408        0.24477491907514454        0        
C1        C        0.375        0.907408        0.24477491907514454        0        
C1        C        0.4375        0.907408        0.24477491907514454        0        
C1        C        0.5        0.907408        0.24477491907514454        0        
C1        C        0.5625        0.907408        0.24477491907514454        0        
C1        C        0.625        0.907408        0.24477491907514454        0        
C1        C        0.6875        0.907408        0.24477491907514454        0        
C1        C        0.75        0.907408        0.24477491907514454        0        
C1        C        0.8125        0.907408        0.24477491907514454        0        
C1        C        0.875        0.907408        0.24477491907514454        0        
C1        C        0.9375        0.907408        0.24477491907514454        0        
C2        C        0.03125        0.962963        0.24477491907514454        0        
C2        C        0.09375        0.962963        0.24477491907514454        0        
C2        C        0.15625        0.962963        0.24477491907514454        0        
C2        C        0.21875        0.962963        0.24477491907514454        0        
C2        C        0.28125        0.962963        0.24477491907514454        0        
C2        C        0.34375        0.962963        0.24477491907514454        0        
C2        C        0.40625        0.962963        0.24477491907514454        0        
C2        C        0.46875        0.962963        0.24477491907514454        0        
C2        C        0.53125        0.962963        0.24477491907514454        0        
C2        C        0.59375        0.962963        0.24477491907514454        0        
C2        C        0.65625        0.962963        0.24477491907514454        0        
C2        C        0.71875        0.962963        0.24477491907514454        0        
C2        C        0.78125        0.962963        0.24477491907514454        0        
C2        C        0.84375        0.962963        0.24477491907514454        0        
C2        C        0.9062500000000001        0.962963        0.24477491907514454        0        
C2        C        0.9687500000000001        0.962963        0.24477491907514454        0        
C3        C        0.0        0.9814809999999999        0.24477491907514454        0        
C3        C        0.0625        0.9814809999999999        0.24477491907514454        0        
C3        C        0.125        0.9814809999999999        0.24477491907514454        0        
C3        C        0.1875        0.9814809999999999        0.24477491907514454        0        
C3        C        0.25        0.9814809999999999        0.24477491907514454        0        
C3        C        0.3125        0.9814809999999999        0.24477491907514454        0        
C3        C        0.375        0.9814809999999999        0.24477491907514454        0        
C3        C        0.4375        0.9814809999999999        0.24477491907514454        0        
C3        C        0.5        0.9814809999999999        0.24477491907514454        0        
C3        C        0.5625        0.9814809999999999        0.24477491907514454        0        
C3        C        0.625        0.9814809999999999        0.24477491907514454        0        
C3        C        0.6875        0.9814809999999999        0.24477491907514454        0        
C3        C        0.75        0.9814809999999999        0.24477491907514454        0        
C3        C        0.8125        0.9814809999999999        0.24477491907514454        0        
C3        C        0.875        0.9814809999999999        0.24477491907514454        0        
C3        C        0.9375        0.9814809999999999        0.24477491907514454        0        
C4        C        0.03125        0.925925        0.24477491907514454        0        
C4        C        0.09375        0.925925        0.24477491907514454        0        
C4        C        0.15625        0.925925        0.24477491907514454        0        
C4        C        0.21875        0.925925        0.24477491907514454        0        
C4        C        0.28125        0.925925        0.24477491907514454        0        
C4        C        0.34375        0.925925        0.24477491907514454        0        
C4        C        0.40625        0.925925        0.24477491907514454        0        
C4        C        0.46875        0.925925        0.24477491907514454        0        
C4        C        0.53125        0.925925        0.24477491907514454        0        
C4        C        0.59375        0.925925        0.24477491907514454        0        
C4        C        0.65625        0.925925        0.24477491907514454        0        
C4        C        0.71875        0.925925        0.24477491907514454        0        
C4        C        0.78125        0.925925        0.24477491907514454        0        
C4        C        0.84375        0.925925        0.24477491907514454        0        
C4        C        0.9062500000000001        0.925925        0.24477491907514454        0        
C4        C        0.9687500000000001        0.925925        0.24477491907514454        0        
O_CO        O        0.0        0.018519        0.00971673410404624        -0.5        
O_OH        O        0.0        0.203703        0.00971673410404624        -0.64        
H_OH        H        -0.01440181907085769        0.22190929371068238        0.0        0.44        
O_OH        O        0.0        0.351852        0.00971673410404624        -0.64        
H_OH        H        -0.022767217908517753        0.35379391422150863        0.0        0.44        
O_CO        O        0.0        0.537037        0.00971673410404624        -0.5        
O_OH        O        0.25        0.018519        0.00971673410404624        -0.64        
H_OH        H        0.22807779758251465        0.02511978204335095        0.0        0.44        
O_CO        O        0.25        0.203703        0.00971673410404624        -0.5        
O_OH        O        0.25        0.351852        0.00971673410404624        -0.64        
H_OH        H        0.26530051869693355        0.3692685567051936        0.0        0.44        
O_OH        O        0.25        0.537037        0.00971673410404624        -0.64        
H_OH        H        0.26369805986406947        0.5558069466159696        0.0        0.44        
O_CO        O        0.5        0.018519        0.00971673410404624        -0.5        
O_CO        O        0.5        0.203703        0.00971673410404624        -0.5        
O_OH        O        0.5        0.351852        0.00971673410404624        -0.64        
H_OH        H        0.5200928852197346        0.3630132349239561        0.0        0.44        
O_OH        O        0.5        0.537037        0.00971673410404624        -0.64        
H_OH        H        0.5228270147851737        0.5379844398027052        0.0        0.44        
O_CO        O        0.75        0.018519        0.00971673410404624        -0.5        
O_OH        O        0.75        0.203703        0.00971673410404624        -0.64        
H_OH        H        0.7611527938794613        0.22417183533220983        0.0        0.44        
O_CO        O        0.75        0.351852        0.00971673410404624        -0.5        
O_OH        O        0.75        0.537037        0.00971673410404624        -0.64        
H_OH        H        0.7591100079602433        0.5585450799745385        0.0        0.44        
O_CO        O        0.0        0.685186        0.00971673410404624        -0.5        
O_CO        O        0.25        0.685186        0.00971673410404624        -0.5        
O_CO        O        0.5        0.685186        0.00971673410404624        -0.5        
O_OH        O        0.75        0.685186        0.00971673410404624        -0.64        
H_OH        H        0.7628768644982774        0.7045589377930351        0.0        0.44        
O_OH        O        0.0        0.87037        0.00971673410404624        -0.64        
H_OH        H        -0.005047391630807671        0.8932438850905363        0.0        0.44        
O_OH        O        0.25        0.87037        0.00971673410404624        -0.64        
H_OH        H        0.22821103443470453        0.8774204088516859        0.0        0.44        
O_CO        O        0.5        0.87037        0.00971673410404624        -0.5        
O_CO        O        0.75        0.87037        0.00971673410404624        -0.5        
O_CO        O        0.0        0.018519        0.2861907225433526        -0.5        
O_OH        O        0.0        0.203703        0.2861907225433526        -0.64        
H_OH        H        0.011600800452571907        0.2239076988137551        0.2959074566473988        0.44        
O_OH        O        0.0        0.351852        0.2861907225433526        -0.64        
H_OH        H        0.02142210738135681        0.3600015578958075        0.2959074566473988        0.44        
O_CO        O        0.0        0.537037        0.2861907225433526        -0.5        
O_OH        O        0.25        0.018519        0.2861907225433526        -0.64        
H_OH        H        0.22715761661787998        0.0189163982854424        0.2959074566473988        0.44        
O_CO        O        0.25        0.203703        0.2861907225433526        -0.5        
O_OH        O        0.25        0.351852        0.2861907225433526        -0.64        
H_OH        H        0.23434513378442215        0.3689334543268423        0.2959074566473988        0.44        
O_OH        O        0.25        0.537037        0.2861907225433526        -0.64        
H_OH        H        0.26042516081920114        0.5579061297816867        0.2959074566473988        0.44        
O_CO        O        0.5        0.018519        0.2861907225433526        -0.5        
O_CO        O        0.5        0.203703        0.2861907225433526        -0.5        
O_OH        O        0.5        0.351852        0.2861907225433526        -0.64        
H_OH        H        0.5227333911554104        0.35417431624418805        0.2959074566473988        0.44        
O_OH        O        0.5        0.537037        0.2861907225433526        -0.64        
H_OH        H        0.4926389500203713        0.5592396543078351        0.2959074566473988        0.44        
O_CO        O        0.75        0.018519        0.2861907225433526        -0.5        
O_OH        O        0.75        0.203703        0.2861907225433526        -0.64        
H_OH        H        0.7689416453082601        0.2168153664436086        0.2959074566473988        0.44        
O_CO        O        0.75        0.351852        0.2861907225433526        -0.5        
O_OH        O        0.75        0.537037        0.2861907225433526        -0.64        
H_OH        H        0.7682197862668487        0.551186409193593        0.2959074566473988        0.44        
O_CO        O        0.0        0.685186        0.2861907225433526        -0.5        
O_CO        O        0.25        0.685186        0.2861907225433526        -0.5        
O_CO        O        0.5        0.685186        0.2861907225433526        -0.5        
O_OH        O        0.75        0.685186        0.2861907225433526        -0.64        
H_OH        H        0.7425906995269841        0.7073717331860082        0.2959074566473988        0.44        
O_OH        O        0.0        0.87037        0.2861907225433526        -0.64        
H_OH        H        -0.007760035219009896        0.8924290001805085        0.2959074566473988        0.44        
O_OH        O        0.25        0.87037        0.2861907225433526        -0.64        
H_OH        H        0.2272820999266958        0.8728469344079484        0.2959074566473988        0.44        
O_CO        O        0.5        0.87037        0.2861907225433526        -0.5        
O_CO        O        0.75        0.87037        0.2861907225433526        -0.5        
