data_graphite_ortho

_audit_creation_method RASPA-1.0
_audit_creation_date 2012-2-3
_audit_author_name 'David Dubbeldam'

_cell_length_a    39.36    
_cell_length_b    38.34    
_cell_length_c    15.6    
_cell_angle_alpha 90
_cell_angle_beta  90
_cell_angle_gamma 90
_cell_volume      23541.37      

_symmetry_cell_setting          triclinic
_symmetry_space_group_name_Hall 'P 1'
_symmetry_space_group_name_H-M  'P 1'
_symmetry_Int_Tables_number     1

_symmetry_equiv_pos_as_xyz 'x,y,z'

loop_
_atom_site_label
_atom_site_type_symbol
_atom_site_fract_x
_atom_site_fract_y
_atom_site_fract_z
_atom_site_charge
C_FG        C        0.0        0.018519        0.11341019230769231        0.2        
C2        C        0.03125        0.074075        0.11341019230769231        0        
C3        C        0.0        0.092592        0.11341019230769231        0        
C4        C        0.03125        0.037037        0.11341019230769231        0        
C_FG        C        0.0        0.12963        0.11341019230769231        0.2        
C2        C        0.03125        0.185185        0.11341019230769231        0        
C3        C        0.0        0.203703        0.11341019230769231        0        
C4        C        0.03125        0.148148        0.11341019230769231        0        
C_FG        C        0.0        0.24074099999999998        0.11341019230769231        0.2        
C2        C        0.03125        0.296297        0.11341019230769231        0        
C3        C        0.0        0.314815        0.11341019230769231        0        
C4        C        0.03125        0.259259        0.11341019230769231        0        
C_FG        C        0.0        0.351852        0.11341019230769231        0.2        
C2        C        0.03125        0.407408        0.11341019230769231        0        
C3        C        0.0        0.42592500000000005        0.11341019230769231        0        
C4        C        0.03125        0.37037        0.11341019230769231        0        
C_FG        C        0.0        0.46296300000000007        0.11341019230769231        0.2        
C2        C        0.03125        0.518519        0.11341019230769231        0        
C3        C        0.0        0.537037        0.11341019230769231        0        
C4        C        0.03125        0.481481        0.11341019230769231        0        
C_FG        C        0.0        0.574075        0.11341019230769231        0.2        
C2        C        0.03125        0.62963        0.11341019230769231        0        
C3        C        0.0        0.648148        0.11341019230769231        0        
C4        C        0.03125        0.592592        0.11341019230769231        0        
C1        C        0.0625        0.018519        0.11341019230769231        0        
C2        C        0.09375        0.074075        0.11341019230769231        0        
C3        C        0.0625        0.092592        0.11341019230769231        0        
C4        C        0.09375        0.037037        0.11341019230769231        0        
C1        C        0.0625        0.12963        0.11341019230769231        0        
C2        C        0.09375        0.185185        0.11341019230769231        0        
C3        C        0.0625        0.203703        0.11341019230769231        0        
C4        C        0.09375        0.148148        0.11341019230769231        0        
C1        C        0.0625        0.24074099999999998        0.11341019230769231        0        
C2        C        0.09375        0.296297        0.11341019230769231        0        
C3        C        0.0625        0.314815        0.11341019230769231        0        
C4        C        0.09375        0.259259        0.11341019230769231        0        
C1        C        0.0625        0.351852        0.11341019230769231        0        
C2        C        0.09375        0.407408        0.11341019230769231        0        
C3        C        0.0625        0.42592500000000005        0.11341019230769231        0        
C4        C        0.09375        0.37037        0.11341019230769231        0        
C1        C        0.0625        0.46296300000000007        0.11341019230769231        0        
C2        C        0.09375        0.518519        0.11341019230769231        0        
C3        C        0.0625        0.537037        0.11341019230769231        0        
C4        C        0.09375        0.481481        0.11341019230769231        0        
C1        C        0.0625        0.574075        0.11341019230769231        0        
C2        C        0.09375        0.62963        0.11341019230769231        0        
C3        C        0.0625        0.648148        0.11341019230769231        0        
C4        C        0.09375        0.592592        0.11341019230769231        0        
C1        C        0.125        0.018519        0.11341019230769231        0        
C2        C        0.15625        0.074075        0.11341019230769231        0        
C3        C        0.125        0.092592        0.11341019230769231        0        
C4        C        0.15625        0.037037        0.11341019230769231        0        
C1        C        0.125        0.12963        0.11341019230769231        0        
C2        C        0.15625        0.185185        0.11341019230769231        0        
C3        C        0.125        0.203703        0.11341019230769231        0        
C4        C        0.15625        0.148148        0.11341019230769231        0        
C1        C        0.125        0.24074099999999998        0.11341019230769231        0        
C2        C        0.15625        0.296297        0.11341019230769231        0        
C3        C        0.125        0.314815        0.11341019230769231        0        
C4        C        0.15625        0.259259        0.11341019230769231        0        
C1        C        0.125        0.351852        0.11341019230769231        0        
C2        C        0.15625        0.407408        0.11341019230769231        0        
C3        C        0.125        0.42592500000000005        0.11341019230769231        0        
C4        C        0.15625        0.37037        0.11341019230769231        0        
C1        C        0.125        0.46296300000000007        0.11341019230769231        0        
C2        C        0.15625        0.518519        0.11341019230769231        0        
C3        C        0.125        0.537037        0.11341019230769231        0        
C4        C        0.15625        0.481481        0.11341019230769231        0        
C1        C        0.125        0.574075        0.11341019230769231        0        
C2        C        0.15625        0.62963        0.11341019230769231        0        
C3        C        0.125        0.648148        0.11341019230769231        0        
C4        C        0.15625        0.592592        0.11341019230769231        0        
C1        C        0.1875        0.018519        0.11341019230769231        0        
C2        C        0.21875        0.074075        0.11341019230769231        0        
C3        C        0.1875        0.092592        0.11341019230769231        0        
C4        C        0.21875        0.037037        0.11341019230769231        0        
C1        C        0.1875        0.12963        0.11341019230769231        0        
C2        C        0.21875        0.185185        0.11341019230769231        0        
C3        C        0.1875        0.203703        0.11341019230769231        0        
C4        C        0.21875        0.148148        0.11341019230769231        0        
C1        C        0.1875        0.24074099999999998        0.11341019230769231        0        
C2        C        0.21875        0.296297        0.11341019230769231        0        
C3        C        0.1875        0.314815        0.11341019230769231        0        
C4        C        0.21875        0.259259        0.11341019230769231        0        
C1        C        0.1875        0.351852        0.11341019230769231        0        
C2        C        0.21875        0.407408        0.11341019230769231        0        
C3        C        0.1875        0.42592500000000005        0.11341019230769231        0        
C4        C        0.21875        0.37037        0.11341019230769231        0        
C1        C        0.1875        0.46296300000000007        0.11341019230769231        0        
C2        C        0.21875        0.518519        0.11341019230769231        0        
C3        C        0.1875        0.537037        0.11341019230769231        0        
C4        C        0.21875        0.481481        0.11341019230769231        0        
C1        C        0.1875        0.574075        0.11341019230769231        0        
C2        C        0.21875        0.62963        0.11341019230769231        0        
C3        C        0.1875        0.648148        0.11341019230769231        0        
C4        C        0.21875        0.592592        0.11341019230769231        0        
C_FG        C        0.25        0.018519        0.11341019230769231        0.2        
C2        C        0.28125        0.074075        0.11341019230769231        0        
C3        C        0.25        0.092592        0.11341019230769231        0        
C4        C        0.28125        0.037037        0.11341019230769231        0        
C_FG        C        0.25        0.12963        0.11341019230769231        0.2        
C2        C        0.28125        0.185185        0.11341019230769231        0        
C3        C        0.25        0.203703        0.11341019230769231        0        
C4        C        0.28125        0.148148        0.11341019230769231        0        
C_FG        C        0.25        0.24074099999999998        0.11341019230769231        0.2        
C2        C        0.28125        0.296297        0.11341019230769231        0        
C3        C        0.25        0.314815        0.11341019230769231        0        
C4        C        0.28125        0.259259        0.11341019230769231        0        
C_FG        C        0.25        0.351852        0.11341019230769231        0.2        
C2        C        0.28125        0.407408        0.11341019230769231        0        
C3        C        0.25        0.42592500000000005        0.11341019230769231        0        
C4        C        0.28125        0.37037        0.11341019230769231        0        
C_FG        C        0.25        0.46296300000000007        0.11341019230769231        0.2        
C2        C        0.28125        0.518519        0.11341019230769231        0        
C3        C        0.25        0.537037        0.11341019230769231        0        
C4        C        0.28125        0.481481        0.11341019230769231        0        
C_FG        C        0.25        0.574075        0.11341019230769231        0.2        
C2        C        0.28125        0.62963        0.11341019230769231        0        
C3        C        0.25        0.648148        0.11341019230769231        0        
C4        C        0.28125        0.592592        0.11341019230769231        0        
C1        C        0.3125        0.018519        0.11341019230769231        0        
C2        C        0.34375        0.074075        0.11341019230769231        0        
C3        C        0.3125        0.092592        0.11341019230769231        0        
C4        C        0.34375        0.037037        0.11341019230769231        0        
C1        C        0.3125        0.12963        0.11341019230769231        0        
C2        C        0.34375        0.185185        0.11341019230769231        0        
C3        C        0.3125        0.203703        0.11341019230769231        0        
C4        C        0.34375        0.148148        0.11341019230769231        0        
C1        C        0.3125        0.24074099999999998        0.11341019230769231        0        
C2        C        0.34375        0.296297        0.11341019230769231        0        
C3        C        0.3125        0.314815        0.11341019230769231        0        
C4        C        0.34375        0.259259        0.11341019230769231        0        
C1        C        0.3125        0.351852        0.11341019230769231        0        
C2        C        0.34375        0.407408        0.11341019230769231        0        
C3        C        0.3125        0.42592500000000005        0.11341019230769231        0        
C4        C        0.34375        0.37037        0.11341019230769231        0        
C1        C        0.3125        0.46296300000000007        0.11341019230769231        0        
C2        C        0.34375        0.518519        0.11341019230769231        0        
C3        C        0.3125        0.537037        0.11341019230769231        0        
C4        C        0.34375        0.481481        0.11341019230769231        0        
C1        C        0.3125        0.574075        0.11341019230769231        0        
C2        C        0.34375        0.62963        0.11341019230769231        0        
C3        C        0.3125        0.648148        0.11341019230769231        0        
C4        C        0.34375        0.592592        0.11341019230769231        0        
C1        C        0.375        0.018519        0.11341019230769231        0        
C2        C        0.40625        0.074075        0.11341019230769231        0        
C3        C        0.375        0.092592        0.11341019230769231        0        
C4        C        0.40625        0.037037        0.11341019230769231        0        
C1        C        0.375        0.12963        0.11341019230769231        0        
C2        C        0.40625        0.185185        0.11341019230769231        0        
C3        C        0.375        0.203703        0.11341019230769231        0        
C4        C        0.40625        0.148148        0.11341019230769231        0        
C1        C        0.375        0.24074099999999998        0.11341019230769231        0        
C2        C        0.40625        0.296297        0.11341019230769231        0        
C3        C        0.375        0.314815        0.11341019230769231        0        
C4        C        0.40625        0.259259        0.11341019230769231        0        
C1        C        0.375        0.351852        0.11341019230769231        0        
C2        C        0.40625        0.407408        0.11341019230769231        0        
C3        C        0.375        0.42592500000000005        0.11341019230769231        0        
C4        C        0.40625        0.37037        0.11341019230769231        0        
C1        C        0.375        0.46296300000000007        0.11341019230769231        0        
C2        C        0.40625        0.518519        0.11341019230769231        0        
C3        C        0.375        0.537037        0.11341019230769231        0        
C4        C        0.40625        0.481481        0.11341019230769231        0        
C1        C        0.375        0.574075        0.11341019230769231        0        
C2        C        0.40625        0.62963        0.11341019230769231        0        
C3        C        0.375        0.648148        0.11341019230769231        0        
C4        C        0.40625        0.592592        0.11341019230769231        0        
C1        C        0.4375        0.018519        0.11341019230769231        0        
C2        C        0.46875        0.074075        0.11341019230769231        0        
C3        C        0.4375        0.092592        0.11341019230769231        0        
C4        C        0.46875        0.037037        0.11341019230769231        0        
C1        C        0.4375        0.12963        0.11341019230769231        0        
C2        C        0.46875        0.185185        0.11341019230769231        0        
C3        C        0.4375        0.203703        0.11341019230769231        0        
C4        C        0.46875        0.148148        0.11341019230769231        0        
C1        C        0.4375        0.24074099999999998        0.11341019230769231        0        
C2        C        0.46875        0.296297        0.11341019230769231        0        
C3        C        0.4375        0.314815        0.11341019230769231        0        
C4        C        0.46875        0.259259        0.11341019230769231        0        
C1        C        0.4375        0.351852        0.11341019230769231        0        
C2        C        0.46875        0.407408        0.11341019230769231        0        
C3        C        0.4375        0.42592500000000005        0.11341019230769231        0        
C4        C        0.46875        0.37037        0.11341019230769231        0        
C1        C        0.4375        0.46296300000000007        0.11341019230769231        0        
C2        C        0.46875        0.518519        0.11341019230769231        0        
C3        C        0.4375        0.537037        0.11341019230769231        0        
C4        C        0.46875        0.481481        0.11341019230769231        0        
C1        C        0.4375        0.574075        0.11341019230769231        0        
C2        C        0.46875        0.62963        0.11341019230769231        0        
C3        C        0.4375        0.648148        0.11341019230769231        0        
C4        C        0.46875        0.592592        0.11341019230769231        0        
C1        C        0.5        0.018519        0.11341019230769231        0        
C2        C        0.53125        0.074075        0.11341019230769231        0        
C3        C        0.5        0.092592        0.11341019230769231        0        
C4        C        0.53125        0.037037        0.11341019230769231        0        
C1        C        0.5        0.12963        0.11341019230769231        0        
C2        C        0.53125        0.185185        0.11341019230769231        0        
C3        C        0.5        0.203703        0.11341019230769231        0        
C4        C        0.53125        0.148148        0.11341019230769231        0        
C1        C        0.5        0.24074099999999998        0.11341019230769231        0        
C2        C        0.53125        0.296297        0.11341019230769231        0        
C3        C        0.5        0.314815        0.11341019230769231        0        
C4        C        0.53125        0.259259        0.11341019230769231        0        
C1        C        0.5        0.351852        0.11341019230769231        0        
C2        C        0.53125        0.407408        0.11341019230769231        0        
C3        C        0.5        0.42592500000000005        0.11341019230769231        0        
C4        C        0.53125        0.37037        0.11341019230769231        0        
C1        C        0.5        0.46296300000000007        0.11341019230769231        0        
C2        C        0.53125        0.518519        0.11341019230769231        0        
C3        C        0.5        0.537037        0.11341019230769231        0        
C4        C        0.53125        0.481481        0.11341019230769231        0        
C1        C        0.5        0.574075        0.11341019230769231        0        
C2        C        0.53125        0.62963        0.11341019230769231        0        
C3        C        0.5        0.648148        0.11341019230769231        0        
C4        C        0.53125        0.592592        0.11341019230769231        0        
C1        C        0.5625        0.018519        0.11341019230769231        0        
C2        C        0.59375        0.074075        0.11341019230769231        0        
C3        C        0.5625        0.092592        0.11341019230769231        0        
C4        C        0.59375        0.037037        0.11341019230769231        0        
C1        C        0.5625        0.12963        0.11341019230769231        0        
C2        C        0.59375        0.185185        0.11341019230769231        0        
C3        C        0.5625        0.203703        0.11341019230769231        0        
C4        C        0.59375        0.148148        0.11341019230769231        0        
C1        C        0.5625        0.24074099999999998        0.11341019230769231        0        
C2        C        0.59375        0.296297        0.11341019230769231        0        
C3        C        0.5625        0.314815        0.11341019230769231        0        
C4        C        0.59375        0.259259        0.11341019230769231        0        
C1        C        0.5625        0.351852        0.11341019230769231        0        
C2        C        0.59375        0.407408        0.11341019230769231        0        
C3        C        0.5625        0.42592500000000005        0.11341019230769231        0        
C4        C        0.59375        0.37037        0.11341019230769231        0        
C1        C        0.5625        0.46296300000000007        0.11341019230769231        0        
C2        C        0.59375        0.518519        0.11341019230769231        0        
C3        C        0.5625        0.537037        0.11341019230769231        0        
C4        C        0.59375        0.481481        0.11341019230769231        0        
C1        C        0.5625        0.574075        0.11341019230769231        0        
C2        C        0.59375        0.62963        0.11341019230769231        0        
C3        C        0.5625        0.648148        0.11341019230769231        0        
C4        C        0.59375        0.592592        0.11341019230769231        0        
C1        C        0.625        0.018519        0.11341019230769231        0        
C2        C        0.65625        0.074075        0.11341019230769231        0        
C3        C        0.625        0.092592        0.11341019230769231        0        
C4        C        0.65625        0.037037        0.11341019230769231        0        
C1        C        0.625        0.12963        0.11341019230769231        0        
C2        C        0.65625        0.185185        0.11341019230769231        0        
C3        C        0.625        0.203703        0.11341019230769231        0        
C4        C        0.65625        0.148148        0.11341019230769231        0        
C1        C        0.625        0.24074099999999998        0.11341019230769231        0        
C2        C        0.65625        0.296297        0.11341019230769231        0        
C3        C        0.625        0.314815        0.11341019230769231        0        
C4        C        0.65625        0.259259        0.11341019230769231        0        
C1        C        0.625        0.351852        0.11341019230769231        0        
C2        C        0.65625        0.407408        0.11341019230769231        0        
C3        C        0.625        0.42592500000000005        0.11341019230769231        0        
C4        C        0.65625        0.37037        0.11341019230769231        0        
C1        C        0.625        0.46296300000000007        0.11341019230769231        0        
C2        C        0.65625        0.518519        0.11341019230769231        0        
C3        C        0.625        0.537037        0.11341019230769231        0        
C4        C        0.65625        0.481481        0.11341019230769231        0        
C1        C        0.625        0.574075        0.11341019230769231        0        
C2        C        0.65625        0.62963        0.11341019230769231        0        
C3        C        0.625        0.648148        0.11341019230769231        0        
C4        C        0.65625        0.592592        0.11341019230769231        0        
C1        C        0.6875        0.018519        0.11341019230769231        0        
C2        C        0.71875        0.074075        0.11341019230769231        0        
C3        C        0.6875        0.092592        0.11341019230769231        0        
C4        C        0.71875        0.037037        0.11341019230769231        0        
C1        C        0.6875        0.12963        0.11341019230769231        0        
C2        C        0.71875        0.185185        0.11341019230769231        0        
C3        C        0.6875        0.203703        0.11341019230769231        0        
C4        C        0.71875        0.148148        0.11341019230769231        0        
C1        C        0.6875        0.24074099999999998        0.11341019230769231        0        
C2        C        0.71875        0.296297        0.11341019230769231        0        
C3        C        0.6875        0.314815        0.11341019230769231        0        
C4        C        0.71875        0.259259        0.11341019230769231        0        
C1        C        0.6875        0.351852        0.11341019230769231        0        
C2        C        0.71875        0.407408        0.11341019230769231        0        
C3        C        0.6875        0.42592500000000005        0.11341019230769231        0        
C4        C        0.71875        0.37037        0.11341019230769231        0        
C1        C        0.6875        0.46296300000000007        0.11341019230769231        0        
C2        C        0.71875        0.518519        0.11341019230769231        0        
C3        C        0.6875        0.537037        0.11341019230769231        0        
C4        C        0.71875        0.481481        0.11341019230769231        0        
C1        C        0.6875        0.574075        0.11341019230769231        0        
C2        C        0.71875        0.62963        0.11341019230769231        0        
C3        C        0.6875        0.648148        0.11341019230769231        0        
C4        C        0.71875        0.592592        0.11341019230769231        0        
C_FG        C        0.75        0.018519        0.11341019230769231        0.2        
C2        C        0.78125        0.074075        0.11341019230769231        0        
C3        C        0.75        0.092592        0.11341019230769231        0        
C4        C        0.78125        0.037037        0.11341019230769231        0        
C_FG        C        0.75        0.12963        0.11341019230769231        0.2        
C2        C        0.78125        0.185185        0.11341019230769231        0        
C3        C        0.75        0.203703        0.11341019230769231        0        
C4        C        0.78125        0.148148        0.11341019230769231        0        
C_FG        C        0.75        0.24074099999999998        0.11341019230769231        0.2        
C2        C        0.78125        0.296297        0.11341019230769231        0        
C3        C        0.75        0.314815        0.11341019230769231        0        
C4        C        0.78125        0.259259        0.11341019230769231        0        
C_FG        C        0.75        0.351852        0.11341019230769231        0.2        
C2        C        0.78125        0.407408        0.11341019230769231        0        
C3        C        0.75        0.42592500000000005        0.11341019230769231        0        
C4        C        0.78125        0.37037        0.11341019230769231        0        
C_FG        C        0.75        0.46296300000000007        0.11341019230769231        0.2        
C2        C        0.78125        0.518519        0.11341019230769231        0        
C3        C        0.75        0.537037        0.11341019230769231        0        
C4        C        0.78125        0.481481        0.11341019230769231        0        
C_FG        C        0.75        0.574075        0.11341019230769231        0.2        
C2        C        0.78125        0.62963        0.11341019230769231        0        
C3        C        0.75        0.648148        0.11341019230769231        0        
C4        C        0.78125        0.592592        0.11341019230769231        0        
C1        C        0.8125        0.018519        0.11341019230769231        0        
C2        C        0.84375        0.074075        0.11341019230769231        0        
C3        C        0.8125        0.092592        0.11341019230769231        0        
C4        C        0.84375        0.037037        0.11341019230769231        0        
C1        C        0.8125        0.12963        0.11341019230769231        0        
C2        C        0.84375        0.185185        0.11341019230769231        0        
C3        C        0.8125        0.203703        0.11341019230769231        0        
C4        C        0.84375        0.148148        0.11341019230769231        0        
C1        C        0.8125        0.24074099999999998        0.11341019230769231        0        
C2        C        0.84375        0.296297        0.11341019230769231        0        
C3        C        0.8125        0.314815        0.11341019230769231        0        
C4        C        0.84375        0.259259        0.11341019230769231        0        
C1        C        0.8125        0.351852        0.11341019230769231        0        
C2        C        0.84375        0.407408        0.11341019230769231        0        
C3        C        0.8125        0.42592500000000005        0.11341019230769231        0        
C4        C        0.84375        0.37037        0.11341019230769231        0        
C1        C        0.8125        0.46296300000000007        0.11341019230769231        0        
C2        C        0.84375        0.518519        0.11341019230769231        0        
C3        C        0.8125        0.537037        0.11341019230769231        0        
C4        C        0.84375        0.481481        0.11341019230769231        0        
C1        C        0.8125        0.574075        0.11341019230769231        0        
C2        C        0.84375        0.62963        0.11341019230769231        0        
C3        C        0.8125        0.648148        0.11341019230769231        0        
C4        C        0.84375        0.592592        0.11341019230769231        0        
C1        C        0.875        0.018519        0.11341019230769231        0        
C2        C        0.9062500000000001        0.074075        0.11341019230769231        0        
C3        C        0.875        0.092592        0.11341019230769231        0        
C4        C        0.9062500000000001        0.037037        0.11341019230769231        0        
C1        C        0.875        0.12963        0.11341019230769231        0        
C2        C        0.9062500000000001        0.185185        0.11341019230769231        0        
C3        C        0.875        0.203703        0.11341019230769231        0        
C4        C        0.9062500000000001        0.148148        0.11341019230769231        0        
C1        C        0.875        0.24074099999999998        0.11341019230769231        0        
C2        C        0.9062500000000001        0.296297        0.11341019230769231        0        
C3        C        0.875        0.314815        0.11341019230769231        0        
C4        C        0.9062500000000001        0.259259        0.11341019230769231        0        
C1        C        0.875        0.351852        0.11341019230769231        0        
C2        C        0.9062500000000001        0.407408        0.11341019230769231        0        
C3        C        0.875        0.42592500000000005        0.11341019230769231        0        
C4        C        0.9062500000000001        0.37037        0.11341019230769231        0        
C1        C        0.875        0.46296300000000007        0.11341019230769231        0        
C2        C        0.9062500000000001        0.518519        0.11341019230769231        0        
C3        C        0.875        0.537037        0.11341019230769231        0        
C4        C        0.9062500000000001        0.481481        0.11341019230769231        0        
C1        C        0.875        0.574075        0.11341019230769231        0        
C2        C        0.9062500000000001        0.62963        0.11341019230769231        0        
C3        C        0.875        0.648148        0.11341019230769231        0        
C4        C        0.9062500000000001        0.592592        0.11341019230769231        0        
C1        C        0.9375        0.018519        0.11341019230769231        0        
C2        C        0.9687500000000001        0.074075        0.11341019230769231        0        
C3        C        0.9375        0.092592        0.11341019230769231        0        
C4        C        0.9687500000000001        0.037037        0.11341019230769231        0        
C1        C        0.9375        0.12963        0.11341019230769231        0        
C2        C        0.9687500000000001        0.185185        0.11341019230769231        0        
C3        C        0.9375        0.203703        0.11341019230769231        0        
C4        C        0.9687500000000001        0.148148        0.11341019230769231        0        
C1        C        0.9375        0.24074099999999998        0.11341019230769231        0        
C2        C        0.9687500000000001        0.296297        0.11341019230769231        0        
C3        C        0.9375        0.314815        0.11341019230769231        0        
C4        C        0.9687500000000001        0.259259        0.11341019230769231        0        
C1        C        0.9375        0.351852        0.11341019230769231        0        
C2        C        0.9687500000000001        0.407408        0.11341019230769231        0        
C3        C        0.9375        0.42592500000000005        0.11341019230769231        0        
C4        C        0.9687500000000001        0.37037        0.11341019230769231        0        
C1        C        0.9375        0.46296300000000007        0.11341019230769231        0        
C2        C        0.9687500000000001        0.518519        0.11341019230769231        0        
C3        C        0.9375        0.537037        0.11341019230769231        0        
C4        C        0.9687500000000001        0.481481        0.11341019230769231        0        
C1        C        0.9375        0.574075        0.11341019230769231        0        
C2        C        0.9687500000000001        0.62963        0.11341019230769231        0        
C3        C        0.9375        0.648148        0.11341019230769231        0        
C4        C        0.9687500000000001        0.592592        0.11341019230769231        0        
C_FG        C        0.0        0.685186        0.11341019230769231        0.2        
C1        C        0.0625        0.685186        0.11341019230769231        0        
C1        C        0.125        0.685186        0.11341019230769231        0        
C1        C        0.1875        0.685186        0.11341019230769231        0        
C_FG        C        0.25        0.685186        0.11341019230769231        0.2        
C1        C        0.3125        0.685186        0.11341019230769231        0        
C1        C        0.375        0.685186        0.11341019230769231        0        
C1        C        0.4375        0.685186        0.11341019230769231        0        
C1        C        0.5        0.685186        0.11341019230769231        0        
C1        C        0.5625        0.685186        0.11341019230769231        0        
C1        C        0.625        0.685186        0.11341019230769231        0        
C1        C        0.6875        0.685186        0.11341019230769231        0        
C_FG        C        0.75        0.685186        0.11341019230769231        0.2        
C1        C        0.8125        0.685186        0.11341019230769231        0        
C1        C        0.875        0.685186        0.11341019230769231        0        
C1        C        0.9375        0.685186        0.11341019230769231        0        
C2        C        0.03125        0.740741        0.11341019230769231        0        
C2        C        0.09375        0.740741        0.11341019230769231        0        
C2        C        0.15625        0.740741        0.11341019230769231        0        
C2        C        0.21875        0.740741        0.11341019230769231        0        
C2        C        0.28125        0.740741        0.11341019230769231        0        
C2        C        0.34375        0.740741        0.11341019230769231        0        
C2        C        0.40625        0.740741        0.11341019230769231        0        
C2        C        0.46875        0.740741        0.11341019230769231        0        
C2        C        0.53125        0.740741        0.11341019230769231        0        
C2        C        0.59375        0.740741        0.11341019230769231        0        
C2        C        0.65625        0.740741        0.11341019230769231        0        
C2        C        0.71875        0.740741        0.11341019230769231        0        
C2        C        0.78125        0.740741        0.11341019230769231        0        
C2        C        0.84375        0.740741        0.11341019230769231        0        
C2        C        0.9062500000000001        0.740741        0.11341019230769231        0        
C2        C        0.9687500000000001        0.740741        0.11341019230769231        0        
C3        C        0.0        0.759259        0.11341019230769231        0        
C3        C        0.0625        0.759259        0.11341019230769231        0        
C3        C        0.125        0.759259        0.11341019230769231        0        
C3        C        0.1875        0.759259        0.11341019230769231        0        
C3        C        0.25        0.759259        0.11341019230769231        0        
C3        C        0.3125        0.759259        0.11341019230769231        0        
C3        C        0.375        0.759259        0.11341019230769231        0        
C3        C        0.4375        0.759259        0.11341019230769231        0        
C3        C        0.5        0.759259        0.11341019230769231        0        
C3        C        0.5625        0.759259        0.11341019230769231        0        
C3        C        0.625        0.759259        0.11341019230769231        0        
C3        C        0.6875        0.759259        0.11341019230769231        0        
C3        C        0.75        0.759259        0.11341019230769231        0        
C3        C        0.8125        0.759259        0.11341019230769231        0        
C3        C        0.875        0.759259        0.11341019230769231        0        
C3        C        0.9375        0.759259        0.11341019230769231        0        
C4        C        0.03125        0.703703        0.11341019230769231        0        
C4        C        0.09375        0.703703        0.11341019230769231        0        
C4        C        0.15625        0.703703        0.11341019230769231        0        
C4        C        0.21875        0.703703        0.11341019230769231        0        
C4        C        0.28125        0.703703        0.11341019230769231        0        
C4        C        0.34375        0.703703        0.11341019230769231        0        
C4        C        0.40625        0.703703        0.11341019230769231        0        
C4        C        0.46875        0.703703        0.11341019230769231        0        
C4        C        0.53125        0.703703        0.11341019230769231        0        
C4        C        0.59375        0.703703        0.11341019230769231        0        
C4        C        0.65625        0.703703        0.11341019230769231        0        
C4        C        0.71875        0.703703        0.11341019230769231        0        
C4        C        0.78125        0.703703        0.11341019230769231        0        
C4        C        0.84375        0.703703        0.11341019230769231        0        
C4        C        0.9062500000000001        0.703703        0.11341019230769231        0        
C4        C        0.9687500000000001        0.703703        0.11341019230769231        0        
C_FG        C        0.0        0.796297        0.11341019230769231        0.2        
C1        C        0.0625        0.796297        0.11341019230769231        0        
C1        C        0.125        0.796297        0.11341019230769231        0        
C1        C        0.1875        0.796297        0.11341019230769231        0        
C_FG        C        0.25        0.796297        0.11341019230769231        0.2        
C1        C        0.3125        0.796297        0.11341019230769231        0        
C1        C        0.375        0.796297        0.11341019230769231        0        
C1        C        0.4375        0.796297        0.11341019230769231        0        
C1        C        0.5        0.796297        0.11341019230769231        0        
C1        C        0.5625        0.796297        0.11341019230769231        0        
C1        C        0.625        0.796297        0.11341019230769231        0        
C1        C        0.6875        0.796297        0.11341019230769231        0        
C_FG        C        0.75        0.796297        0.11341019230769231        0.2        
C1        C        0.8125        0.796297        0.11341019230769231        0        
C1        C        0.875        0.796297        0.11341019230769231        0        
C1        C        0.9375        0.796297        0.11341019230769231        0        
C2        C        0.03125        0.851852        0.11341019230769231        0        
C2        C        0.09375        0.851852        0.11341019230769231        0        
C2        C        0.15625        0.851852        0.11341019230769231        0        
C2        C        0.21875        0.851852        0.11341019230769231        0        
C2        C        0.28125        0.851852        0.11341019230769231        0        
C2        C        0.34375        0.851852        0.11341019230769231        0        
C2        C        0.40625        0.851852        0.11341019230769231        0        
C2        C        0.46875        0.851852        0.11341019230769231        0        
C2        C        0.53125        0.851852        0.11341019230769231        0        
C2        C        0.59375        0.851852        0.11341019230769231        0        
C2        C        0.65625        0.851852        0.11341019230769231        0        
C2        C        0.71875        0.851852        0.11341019230769231        0        
C2        C        0.78125        0.851852        0.11341019230769231        0        
C2        C        0.84375        0.851852        0.11341019230769231        0        
C2        C        0.9062500000000001        0.851852        0.11341019230769231        0        
C2        C        0.9687500000000001        0.851852        0.11341019230769231        0        
C3        C        0.0        0.87037        0.11341019230769231        0        
C3        C        0.0625        0.87037        0.11341019230769231        0        
C3        C        0.125        0.87037        0.11341019230769231        0        
C3        C        0.1875        0.87037        0.11341019230769231        0        
C3        C        0.25        0.87037        0.11341019230769231        0        
C3        C        0.3125        0.87037        0.11341019230769231        0        
C3        C        0.375        0.87037        0.11341019230769231        0        
C3        C        0.4375        0.87037        0.11341019230769231        0        
C3        C        0.5        0.87037        0.11341019230769231        0        
C3        C        0.5625        0.87037        0.11341019230769231        0        
C3        C        0.625        0.87037        0.11341019230769231        0        
C3        C        0.6875        0.87037        0.11341019230769231        0        
C3        C        0.75        0.87037        0.11341019230769231        0        
C3        C        0.8125        0.87037        0.11341019230769231        0        
C3        C        0.875        0.87037        0.11341019230769231        0        
C3        C        0.9375        0.87037        0.11341019230769231        0        
C4        C        0.03125        0.814814        0.11341019230769231        0        
C4        C        0.09375        0.814814        0.11341019230769231        0        
C4        C        0.15625        0.814814        0.11341019230769231        0        
C4        C        0.21875        0.814814        0.11341019230769231        0        
C4        C        0.28125        0.814814        0.11341019230769231        0        
C4        C        0.34375        0.814814        0.11341019230769231        0        
C4        C        0.40625        0.814814        0.11341019230769231        0        
C4        C        0.46875        0.814814        0.11341019230769231        0        
C4        C        0.53125        0.814814        0.11341019230769231        0        
C4        C        0.59375        0.814814        0.11341019230769231        0        
C4        C        0.65625        0.814814        0.11341019230769231        0        
C4        C        0.71875        0.814814        0.11341019230769231        0        
C4        C        0.78125        0.814814        0.11341019230769231        0        
C4        C        0.84375        0.814814        0.11341019230769231        0        
C4        C        0.9062500000000001        0.814814        0.11341019230769231        0        
C4        C        0.9687500000000001        0.814814        0.11341019230769231        0        
C_FG        C        0.0        0.907408        0.11341019230769231        0.2        
C1        C        0.0625        0.907408        0.11341019230769231        0        
C1        C        0.125        0.907408        0.11341019230769231        0        
C1        C        0.1875        0.907408        0.11341019230769231        0        
C_FG        C        0.25        0.907408        0.11341019230769231        0.2        
C1        C        0.3125        0.907408        0.11341019230769231        0        
C1        C        0.375        0.907408        0.11341019230769231        0        
C1        C        0.4375        0.907408        0.11341019230769231        0        
C1        C        0.5        0.907408        0.11341019230769231        0        
C1        C        0.5625        0.907408        0.11341019230769231        0        
C1        C        0.625        0.907408        0.11341019230769231        0        
C1        C        0.6875        0.907408        0.11341019230769231        0        
C_FG        C        0.75        0.907408        0.11341019230769231        0.2        
C1        C        0.8125        0.907408        0.11341019230769231        0        
C1        C        0.875        0.907408        0.11341019230769231        0        
C1        C        0.9375        0.907408        0.11341019230769231        0        
C2        C        0.03125        0.962963        0.11341019230769231        0        
C2        C        0.09375        0.962963        0.11341019230769231        0        
C2        C        0.15625        0.962963        0.11341019230769231        0        
C2        C        0.21875        0.962963        0.11341019230769231        0        
C2        C        0.28125        0.962963        0.11341019230769231        0        
C2        C        0.34375        0.962963        0.11341019230769231        0        
C2        C        0.40625        0.962963        0.11341019230769231        0        
C2        C        0.46875        0.962963        0.11341019230769231        0        
C2        C        0.53125        0.962963        0.11341019230769231        0        
C2        C        0.59375        0.962963        0.11341019230769231        0        
C2        C        0.65625        0.962963        0.11341019230769231        0        
C2        C        0.71875        0.962963        0.11341019230769231        0        
C2        C        0.78125        0.962963        0.11341019230769231        0        
C2        C        0.84375        0.962963        0.11341019230769231        0        
C2        C        0.9062500000000001        0.962963        0.11341019230769231        0        
C2        C        0.9687500000000001        0.962963        0.11341019230769231        0        
C3        C        0.0        0.9814809999999999        0.11341019230769231        0        
C3        C        0.0625        0.9814809999999999        0.11341019230769231        0        
C3        C        0.125        0.9814809999999999        0.11341019230769231        0        
C3        C        0.1875        0.9814809999999999        0.11341019230769231        0        
C3        C        0.25        0.9814809999999999        0.11341019230769231        0        
C3        C        0.3125        0.9814809999999999        0.11341019230769231        0        
C3        C        0.375        0.9814809999999999        0.11341019230769231        0        
C3        C        0.4375        0.9814809999999999        0.11341019230769231        0        
C3        C        0.5        0.9814809999999999        0.11341019230769231        0        
C3        C        0.5625        0.9814809999999999        0.11341019230769231        0        
C3        C        0.625        0.9814809999999999        0.11341019230769231        0        
C3        C        0.6875        0.9814809999999999        0.11341019230769231        0        
C3        C        0.75        0.9814809999999999        0.11341019230769231        0        
C3        C        0.8125        0.9814809999999999        0.11341019230769231        0        
C3        C        0.875        0.9814809999999999        0.11341019230769231        0        
C3        C        0.9375        0.9814809999999999        0.11341019230769231        0        
C4        C        0.03125        0.925925        0.11341019230769231        0        
C4        C        0.09375        0.925925        0.11341019230769231        0        
C4        C        0.15625        0.925925        0.11341019230769231        0        
C4        C        0.21875        0.925925        0.11341019230769231        0        
C4        C        0.28125        0.925925        0.11341019230769231        0        
C4        C        0.34375        0.925925        0.11341019230769231        0        
C4        C        0.40625        0.925925        0.11341019230769231        0        
C4        C        0.46875        0.925925        0.11341019230769231        0        
C4        C        0.53125        0.925925        0.11341019230769231        0        
C4        C        0.59375        0.925925        0.11341019230769231        0        
C4        C        0.65625        0.925925        0.11341019230769231        0        
C4        C        0.71875        0.925925        0.11341019230769231        0        
C4        C        0.78125        0.925925        0.11341019230769231        0        
C4        C        0.84375        0.925925        0.11341019230769231        0        
C4        C        0.9062500000000001        0.925925        0.11341019230769231        0        
C4        C        0.9687500000000001        0.925925        0.11341019230769231        0        
C1        C        0.0        0.018519        0.3281541923076923        0        
C2        C        0.03125        0.074075        0.3281541923076923        0        
C3        C        0.0        0.092592        0.3281541923076923        0        
C4        C        0.03125        0.037037        0.3281541923076923        0        
C1        C        0.0        0.12963        0.3281541923076923        0        
C2        C        0.03125        0.185185        0.3281541923076923        0        
C3        C        0.0        0.203703        0.3281541923076923        0        
C4        C        0.03125        0.148148        0.3281541923076923        0        
C1        C        0.0        0.24074099999999998        0.3281541923076923        0        
C2        C        0.03125        0.296297        0.3281541923076923        0        
C3        C        0.0        0.314815        0.3281541923076923        0        
C4        C        0.03125        0.259259        0.3281541923076923        0        
C1        C        0.0        0.351852        0.3281541923076923        0        
C2        C        0.03125        0.407408        0.3281541923076923        0        
C3        C        0.0        0.42592500000000005        0.3281541923076923        0        
C4        C        0.03125        0.37037        0.3281541923076923        0        
C1        C        0.0        0.46296300000000007        0.3281541923076923        0        
C2        C        0.03125        0.518519        0.3281541923076923        0        
C3        C        0.0        0.537037        0.3281541923076923        0        
C4        C        0.03125        0.481481        0.3281541923076923        0        
C1        C        0.0        0.574075        0.3281541923076923        0        
C2        C        0.03125        0.62963        0.3281541923076923        0        
C3        C        0.0        0.648148        0.3281541923076923        0        
C4        C        0.03125        0.592592        0.3281541923076923        0        
C1        C        0.0625        0.018519        0.3281541923076923        0        
C2        C        0.09375        0.074075        0.3281541923076923        0        
C3        C        0.0625        0.092592        0.3281541923076923        0        
C4        C        0.09375        0.037037        0.3281541923076923        0        
C1        C        0.0625        0.12963        0.3281541923076923        0        
C2        C        0.09375        0.185185        0.3281541923076923        0        
C3        C        0.0625        0.203703        0.3281541923076923        0        
C4        C        0.09375        0.148148        0.3281541923076923        0        
C1        C        0.0625        0.24074099999999998        0.3281541923076923        0        
C2        C        0.09375        0.296297        0.3281541923076923        0        
C3        C        0.0625        0.314815        0.3281541923076923        0        
C4        C        0.09375        0.259259        0.3281541923076923        0        
C1        C        0.0625        0.351852        0.3281541923076923        0        
C2        C        0.09375        0.407408        0.3281541923076923        0        
C3        C        0.0625        0.42592500000000005        0.3281541923076923        0        
C4        C        0.09375        0.37037        0.3281541923076923        0        
C1        C        0.0625        0.46296300000000007        0.3281541923076923        0        
C2        C        0.09375        0.518519        0.3281541923076923        0        
C3        C        0.0625        0.537037        0.3281541923076923        0        
C4        C        0.09375        0.481481        0.3281541923076923        0        
C1        C        0.0625        0.574075        0.3281541923076923        0        
C2        C        0.09375        0.62963        0.3281541923076923        0        
C3        C        0.0625        0.648148        0.3281541923076923        0        
C4        C        0.09375        0.592592        0.3281541923076923        0        
C1        C        0.125        0.018519        0.3281541923076923        0        
C2        C        0.15625        0.074075        0.3281541923076923        0        
C3        C        0.125        0.092592        0.3281541923076923        0        
C4        C        0.15625        0.037037        0.3281541923076923        0        
C1        C        0.125        0.12963        0.3281541923076923        0        
C2        C        0.15625        0.185185        0.3281541923076923        0        
C3        C        0.125        0.203703        0.3281541923076923        0        
C4        C        0.15625        0.148148        0.3281541923076923        0        
C1        C        0.125        0.24074099999999998        0.3281541923076923        0        
C2        C        0.15625        0.296297        0.3281541923076923        0        
C3        C        0.125        0.314815        0.3281541923076923        0        
C4        C        0.15625        0.259259        0.3281541923076923        0        
C1        C        0.125        0.351852        0.3281541923076923        0        
C2        C        0.15625        0.407408        0.3281541923076923        0        
C3        C        0.125        0.42592500000000005        0.3281541923076923        0        
C4        C        0.15625        0.37037        0.3281541923076923        0        
C1        C        0.125        0.46296300000000007        0.3281541923076923        0        
C2        C        0.15625        0.518519        0.3281541923076923        0        
C3        C        0.125        0.537037        0.3281541923076923        0        
C4        C        0.15625        0.481481        0.3281541923076923        0        
C1        C        0.125        0.574075        0.3281541923076923        0        
C2        C        0.15625        0.62963        0.3281541923076923        0        
C3        C        0.125        0.648148        0.3281541923076923        0        
C4        C        0.15625        0.592592        0.3281541923076923        0        
C1        C        0.1875        0.018519        0.3281541923076923        0        
C2        C        0.21875        0.074075        0.3281541923076923        0        
C3        C        0.1875        0.092592        0.3281541923076923        0        
C4        C        0.21875        0.037037        0.3281541923076923        0        
C1        C        0.1875        0.12963        0.3281541923076923        0        
C2        C        0.21875        0.185185        0.3281541923076923        0        
C3        C        0.1875        0.203703        0.3281541923076923        0        
C4        C        0.21875        0.148148        0.3281541923076923        0        
C1        C        0.1875        0.24074099999999998        0.3281541923076923        0        
C2        C        0.21875        0.296297        0.3281541923076923        0        
C3        C        0.1875        0.314815        0.3281541923076923        0        
C4        C        0.21875        0.259259        0.3281541923076923        0        
C1        C        0.1875        0.351852        0.3281541923076923        0        
C2        C        0.21875        0.407408        0.3281541923076923        0        
C3        C        0.1875        0.42592500000000005        0.3281541923076923        0        
C4        C        0.21875        0.37037        0.3281541923076923        0        
C1        C        0.1875        0.46296300000000007        0.3281541923076923        0        
C2        C        0.21875        0.518519        0.3281541923076923        0        
C3        C        0.1875        0.537037        0.3281541923076923        0        
C4        C        0.21875        0.481481        0.3281541923076923        0        
C1        C        0.1875        0.574075        0.3281541923076923        0        
C2        C        0.21875        0.62963        0.3281541923076923        0        
C3        C        0.1875        0.648148        0.3281541923076923        0        
C4        C        0.21875        0.592592        0.3281541923076923        0        
C1        C        0.25        0.018519        0.3281541923076923        0        
C2        C        0.28125        0.074075        0.3281541923076923        0        
C3        C        0.25        0.092592        0.3281541923076923        0        
C4        C        0.28125        0.037037        0.3281541923076923        0        
C1        C        0.25        0.12963        0.3281541923076923        0        
C2        C        0.28125        0.185185        0.3281541923076923        0        
C3        C        0.25        0.203703        0.3281541923076923        0        
C4        C        0.28125        0.148148        0.3281541923076923        0        
C1        C        0.25        0.24074099999999998        0.3281541923076923        0        
C2        C        0.28125        0.296297        0.3281541923076923        0        
C3        C        0.25        0.314815        0.3281541923076923        0        
C4        C        0.28125        0.259259        0.3281541923076923        0        
C1        C        0.25        0.351852        0.3281541923076923        0        
C2        C        0.28125        0.407408        0.3281541923076923        0        
C3        C        0.25        0.42592500000000005        0.3281541923076923        0        
C4        C        0.28125        0.37037        0.3281541923076923        0        
C1        C        0.25        0.46296300000000007        0.3281541923076923        0        
C2        C        0.28125        0.518519        0.3281541923076923        0        
C3        C        0.25        0.537037        0.3281541923076923        0        
C4        C        0.28125        0.481481        0.3281541923076923        0        
C1        C        0.25        0.574075        0.3281541923076923        0        
C2        C        0.28125        0.62963        0.3281541923076923        0        
C3        C        0.25        0.648148        0.3281541923076923        0        
C4        C        0.28125        0.592592        0.3281541923076923        0        
C1        C        0.3125        0.018519        0.3281541923076923        0        
C2        C        0.34375        0.074075        0.3281541923076923        0        
C3        C        0.3125        0.092592        0.3281541923076923        0        
C4        C        0.34375        0.037037        0.3281541923076923        0        
C1        C        0.3125        0.12963        0.3281541923076923        0        
C2        C        0.34375        0.185185        0.3281541923076923        0        
C3        C        0.3125        0.203703        0.3281541923076923        0        
C4        C        0.34375        0.148148        0.3281541923076923        0        
C1        C        0.3125        0.24074099999999998        0.3281541923076923        0        
C2        C        0.34375        0.296297        0.3281541923076923        0        
C3        C        0.3125        0.314815        0.3281541923076923        0        
C4        C        0.34375        0.259259        0.3281541923076923        0        
C1        C        0.3125        0.351852        0.3281541923076923        0        
C2        C        0.34375        0.407408        0.3281541923076923        0        
C3        C        0.3125        0.42592500000000005        0.3281541923076923        0        
C4        C        0.34375        0.37037        0.3281541923076923        0        
C1        C        0.3125        0.46296300000000007        0.3281541923076923        0        
C2        C        0.34375        0.518519        0.3281541923076923        0        
C3        C        0.3125        0.537037        0.3281541923076923        0        
C4        C        0.34375        0.481481        0.3281541923076923        0        
C1        C        0.3125        0.574075        0.3281541923076923        0        
C2        C        0.34375        0.62963        0.3281541923076923        0        
C3        C        0.3125        0.648148        0.3281541923076923        0        
C4        C        0.34375        0.592592        0.3281541923076923        0        
C1        C        0.375        0.018519        0.3281541923076923        0        
C2        C        0.40625        0.074075        0.3281541923076923        0        
C3        C        0.375        0.092592        0.3281541923076923        0        
C4        C        0.40625        0.037037        0.3281541923076923        0        
C1        C        0.375        0.12963        0.3281541923076923        0        
C2        C        0.40625        0.185185        0.3281541923076923        0        
C3        C        0.375        0.203703        0.3281541923076923        0        
C4        C        0.40625        0.148148        0.3281541923076923        0        
C1        C        0.375        0.24074099999999998        0.3281541923076923        0        
C2        C        0.40625        0.296297        0.3281541923076923        0        
C3        C        0.375        0.314815        0.3281541923076923        0        
C4        C        0.40625        0.259259        0.3281541923076923        0        
C1        C        0.375        0.351852        0.3281541923076923        0        
C2        C        0.40625        0.407408        0.3281541923076923        0        
C3        C        0.375        0.42592500000000005        0.3281541923076923        0        
C4        C        0.40625        0.37037        0.3281541923076923        0        
C1        C        0.375        0.46296300000000007        0.3281541923076923        0        
C2        C        0.40625        0.518519        0.3281541923076923        0        
C3        C        0.375        0.537037        0.3281541923076923        0        
C4        C        0.40625        0.481481        0.3281541923076923        0        
C1        C        0.375        0.574075        0.3281541923076923        0        
C2        C        0.40625        0.62963        0.3281541923076923        0        
C3        C        0.375        0.648148        0.3281541923076923        0        
C4        C        0.40625        0.592592        0.3281541923076923        0        
C1        C        0.4375        0.018519        0.3281541923076923        0        
C2        C        0.46875        0.074075        0.3281541923076923        0        
C3        C        0.4375        0.092592        0.3281541923076923        0        
C4        C        0.46875        0.037037        0.3281541923076923        0        
C1        C        0.4375        0.12963        0.3281541923076923        0        
C2        C        0.46875        0.185185        0.3281541923076923        0        
C3        C        0.4375        0.203703        0.3281541923076923        0        
C4        C        0.46875        0.148148        0.3281541923076923        0        
C1        C        0.4375        0.24074099999999998        0.3281541923076923        0        
C2        C        0.46875        0.296297        0.3281541923076923        0        
C3        C        0.4375        0.314815        0.3281541923076923        0        
C4        C        0.46875        0.259259        0.3281541923076923        0        
C1        C        0.4375        0.351852        0.3281541923076923        0        
C2        C        0.46875        0.407408        0.3281541923076923        0        
C3        C        0.4375        0.42592500000000005        0.3281541923076923        0        
C4        C        0.46875        0.37037        0.3281541923076923        0        
C1        C        0.4375        0.46296300000000007        0.3281541923076923        0        
C2        C        0.46875        0.518519        0.3281541923076923        0        
C3        C        0.4375        0.537037        0.3281541923076923        0        
C4        C        0.46875        0.481481        0.3281541923076923        0        
C1        C        0.4375        0.574075        0.3281541923076923        0        
C2        C        0.46875        0.62963        0.3281541923076923        0        
C3        C        0.4375        0.648148        0.3281541923076923        0        
C4        C        0.46875        0.592592        0.3281541923076923        0        
C1        C        0.5        0.018519        0.3281541923076923        0        
C2        C        0.53125        0.074075        0.3281541923076923        0        
C3        C        0.5        0.092592        0.3281541923076923        0        
C4        C        0.53125        0.037037        0.3281541923076923        0        
C1        C        0.5        0.12963        0.3281541923076923        0        
C2        C        0.53125        0.185185        0.3281541923076923        0        
C3        C        0.5        0.203703        0.3281541923076923        0        
C4        C        0.53125        0.148148        0.3281541923076923        0        
C1        C        0.5        0.24074099999999998        0.3281541923076923        0        
C2        C        0.53125        0.296297        0.3281541923076923        0        
C3        C        0.5        0.314815        0.3281541923076923        0        
C4        C        0.53125        0.259259        0.3281541923076923        0        
C1        C        0.5        0.351852        0.3281541923076923        0        
C2        C        0.53125        0.407408        0.3281541923076923        0        
C3        C        0.5        0.42592500000000005        0.3281541923076923        0        
C4        C        0.53125        0.37037        0.3281541923076923        0        
C1        C        0.5        0.46296300000000007        0.3281541923076923        0        
C2        C        0.53125        0.518519        0.3281541923076923        0        
C3        C        0.5        0.537037        0.3281541923076923        0        
C4        C        0.53125        0.481481        0.3281541923076923        0        
C1        C        0.5        0.574075        0.3281541923076923        0        
C2        C        0.53125        0.62963        0.3281541923076923        0        
C3        C        0.5        0.648148        0.3281541923076923        0        
C4        C        0.53125        0.592592        0.3281541923076923        0        
C1        C        0.5625        0.018519        0.3281541923076923        0        
C2        C        0.59375        0.074075        0.3281541923076923        0        
C3        C        0.5625        0.092592        0.3281541923076923        0        
C4        C        0.59375        0.037037        0.3281541923076923        0        
C1        C        0.5625        0.12963        0.3281541923076923        0        
C2        C        0.59375        0.185185        0.3281541923076923        0        
C3        C        0.5625        0.203703        0.3281541923076923        0        
C4        C        0.59375        0.148148        0.3281541923076923        0        
C1        C        0.5625        0.24074099999999998        0.3281541923076923        0        
C2        C        0.59375        0.296297        0.3281541923076923        0        
C3        C        0.5625        0.314815        0.3281541923076923        0        
C4        C        0.59375        0.259259        0.3281541923076923        0        
C1        C        0.5625        0.351852        0.3281541923076923        0        
C2        C        0.59375        0.407408        0.3281541923076923        0        
C3        C        0.5625        0.42592500000000005        0.3281541923076923        0        
C4        C        0.59375        0.37037        0.3281541923076923        0        
C1        C        0.5625        0.46296300000000007        0.3281541923076923        0        
C2        C        0.59375        0.518519        0.3281541923076923        0        
C3        C        0.5625        0.537037        0.3281541923076923        0        
C4        C        0.59375        0.481481        0.3281541923076923        0        
C1        C        0.5625        0.574075        0.3281541923076923        0        
C2        C        0.59375        0.62963        0.3281541923076923        0        
C3        C        0.5625        0.648148        0.3281541923076923        0        
C4        C        0.59375        0.592592        0.3281541923076923        0        
C1        C        0.625        0.018519        0.3281541923076923        0        
C2        C        0.65625        0.074075        0.3281541923076923        0        
C3        C        0.625        0.092592        0.3281541923076923        0        
C4        C        0.65625        0.037037        0.3281541923076923        0        
C1        C        0.625        0.12963        0.3281541923076923        0        
C2        C        0.65625        0.185185        0.3281541923076923        0        
C3        C        0.625        0.203703        0.3281541923076923        0        
C4        C        0.65625        0.148148        0.3281541923076923        0        
C1        C        0.625        0.24074099999999998        0.3281541923076923        0        
C2        C        0.65625        0.296297        0.3281541923076923        0        
C3        C        0.625        0.314815        0.3281541923076923        0        
C4        C        0.65625        0.259259        0.3281541923076923        0        
C1        C        0.625        0.351852        0.3281541923076923        0        
C2        C        0.65625        0.407408        0.3281541923076923        0        
C3        C        0.625        0.42592500000000005        0.3281541923076923        0        
C4        C        0.65625        0.37037        0.3281541923076923        0        
C1        C        0.625        0.46296300000000007        0.3281541923076923        0        
C2        C        0.65625        0.518519        0.3281541923076923        0        
C3        C        0.625        0.537037        0.3281541923076923        0        
C4        C        0.65625        0.481481        0.3281541923076923        0        
C1        C        0.625        0.574075        0.3281541923076923        0        
C2        C        0.65625        0.62963        0.3281541923076923        0        
C3        C        0.625        0.648148        0.3281541923076923        0        
C4        C        0.65625        0.592592        0.3281541923076923        0        
C1        C        0.6875        0.018519        0.3281541923076923        0        
C2        C        0.71875        0.074075        0.3281541923076923        0        
C3        C        0.6875        0.092592        0.3281541923076923        0        
C4        C        0.71875        0.037037        0.3281541923076923        0        
C1        C        0.6875        0.12963        0.3281541923076923        0        
C2        C        0.71875        0.185185        0.3281541923076923        0        
C3        C        0.6875        0.203703        0.3281541923076923        0        
C4        C        0.71875        0.148148        0.3281541923076923        0        
C1        C        0.6875        0.24074099999999998        0.3281541923076923        0        
C2        C        0.71875        0.296297        0.3281541923076923        0        
C3        C        0.6875        0.314815        0.3281541923076923        0        
C4        C        0.71875        0.259259        0.3281541923076923        0        
C1        C        0.6875        0.351852        0.3281541923076923        0        
C2        C        0.71875        0.407408        0.3281541923076923        0        
C3        C        0.6875        0.42592500000000005        0.3281541923076923        0        
C4        C        0.71875        0.37037        0.3281541923076923        0        
C1        C        0.6875        0.46296300000000007        0.3281541923076923        0        
C2        C        0.71875        0.518519        0.3281541923076923        0        
C3        C        0.6875        0.537037        0.3281541923076923        0        
C4        C        0.71875        0.481481        0.3281541923076923        0        
C1        C        0.6875        0.574075        0.3281541923076923        0        
C2        C        0.71875        0.62963        0.3281541923076923        0        
C3        C        0.6875        0.648148        0.3281541923076923        0        
C4        C        0.71875        0.592592        0.3281541923076923        0        
C1        C        0.75        0.018519        0.3281541923076923        0        
C2        C        0.78125        0.074075        0.3281541923076923        0        
C3        C        0.75        0.092592        0.3281541923076923        0        
C4        C        0.78125        0.037037        0.3281541923076923        0        
C1        C        0.75        0.12963        0.3281541923076923        0        
C2        C        0.78125        0.185185        0.3281541923076923        0        
C3        C        0.75        0.203703        0.3281541923076923        0        
C4        C        0.78125        0.148148        0.3281541923076923        0        
C1        C        0.75        0.24074099999999998        0.3281541923076923        0        
C2        C        0.78125        0.296297        0.3281541923076923        0        
C3        C        0.75        0.314815        0.3281541923076923        0        
C4        C        0.78125        0.259259        0.3281541923076923        0        
C1        C        0.75        0.351852        0.3281541923076923        0        
C2        C        0.78125        0.407408        0.3281541923076923        0        
C3        C        0.75        0.42592500000000005        0.3281541923076923        0        
C4        C        0.78125        0.37037        0.3281541923076923        0        
C1        C        0.75        0.46296300000000007        0.3281541923076923        0        
C2        C        0.78125        0.518519        0.3281541923076923        0        
C3        C        0.75        0.537037        0.3281541923076923        0        
C4        C        0.78125        0.481481        0.3281541923076923        0        
C1        C        0.75        0.574075        0.3281541923076923        0        
C2        C        0.78125        0.62963        0.3281541923076923        0        
C3        C        0.75        0.648148        0.3281541923076923        0        
C4        C        0.78125        0.592592        0.3281541923076923        0        
C1        C        0.8125        0.018519        0.3281541923076923        0        
C2        C        0.84375        0.074075        0.3281541923076923        0        
C3        C        0.8125        0.092592        0.3281541923076923        0        
C4        C        0.84375        0.037037        0.3281541923076923        0        
C1        C        0.8125        0.12963        0.3281541923076923        0        
C2        C        0.84375        0.185185        0.3281541923076923        0        
C3        C        0.8125        0.203703        0.3281541923076923        0        
C4        C        0.84375        0.148148        0.3281541923076923        0        
C1        C        0.8125        0.24074099999999998        0.3281541923076923        0        
C2        C        0.84375        0.296297        0.3281541923076923        0        
C3        C        0.8125        0.314815        0.3281541923076923        0        
C4        C        0.84375        0.259259        0.3281541923076923        0        
C1        C        0.8125        0.351852        0.3281541923076923        0        
C2        C        0.84375        0.407408        0.3281541923076923        0        
C3        C        0.8125        0.42592500000000005        0.3281541923076923        0        
C4        C        0.84375        0.37037        0.3281541923076923        0        
C1        C        0.8125        0.46296300000000007        0.3281541923076923        0        
C2        C        0.84375        0.518519        0.3281541923076923        0        
C3        C        0.8125        0.537037        0.3281541923076923        0        
C4        C        0.84375        0.481481        0.3281541923076923        0        
C1        C        0.8125        0.574075        0.3281541923076923        0        
C2        C        0.84375        0.62963        0.3281541923076923        0        
C3        C        0.8125        0.648148        0.3281541923076923        0        
C4        C        0.84375        0.592592        0.3281541923076923        0        
C1        C        0.875        0.018519        0.3281541923076923        0        
C2        C        0.9062500000000001        0.074075        0.3281541923076923        0        
C3        C        0.875        0.092592        0.3281541923076923        0        
C4        C        0.9062500000000001        0.037037        0.3281541923076923        0        
C1        C        0.875        0.12963        0.3281541923076923        0        
C2        C        0.9062500000000001        0.185185        0.3281541923076923        0        
C3        C        0.875        0.203703        0.3281541923076923        0        
C4        C        0.9062500000000001        0.148148        0.3281541923076923        0        
C1        C        0.875        0.24074099999999998        0.3281541923076923        0        
C2        C        0.9062500000000001        0.296297        0.3281541923076923        0        
C3        C        0.875        0.314815        0.3281541923076923        0        
C4        C        0.9062500000000001        0.259259        0.3281541923076923        0        
C1        C        0.875        0.351852        0.3281541923076923        0        
C2        C        0.9062500000000001        0.407408        0.3281541923076923        0        
C3        C        0.875        0.42592500000000005        0.3281541923076923        0        
C4        C        0.9062500000000001        0.37037        0.3281541923076923        0        
C1        C        0.875        0.46296300000000007        0.3281541923076923        0        
C2        C        0.9062500000000001        0.518519        0.3281541923076923        0        
C3        C        0.875        0.537037        0.3281541923076923        0        
C4        C        0.9062500000000001        0.481481        0.3281541923076923        0        
C1        C        0.875        0.574075        0.3281541923076923        0        
C2        C        0.9062500000000001        0.62963        0.3281541923076923        0        
C3        C        0.875        0.648148        0.3281541923076923        0        
C4        C        0.9062500000000001        0.592592        0.3281541923076923        0        
C1        C        0.9375        0.018519        0.3281541923076923        0        
C2        C        0.9687500000000001        0.074075        0.3281541923076923        0        
C3        C        0.9375        0.092592        0.3281541923076923        0        
C4        C        0.9687500000000001        0.037037        0.3281541923076923        0        
C1        C        0.9375        0.12963        0.3281541923076923        0        
C2        C        0.9687500000000001        0.185185        0.3281541923076923        0        
C3        C        0.9375        0.203703        0.3281541923076923        0        
C4        C        0.9687500000000001        0.148148        0.3281541923076923        0        
C1        C        0.9375        0.24074099999999998        0.3281541923076923        0        
C2        C        0.9687500000000001        0.296297        0.3281541923076923        0        
C3        C        0.9375        0.314815        0.3281541923076923        0        
C4        C        0.9687500000000001        0.259259        0.3281541923076923        0        
C1        C        0.9375        0.351852        0.3281541923076923        0        
C2        C        0.9687500000000001        0.407408        0.3281541923076923        0        
C3        C        0.9375        0.42592500000000005        0.3281541923076923        0        
C4        C        0.9687500000000001        0.37037        0.3281541923076923        0        
C1        C        0.9375        0.46296300000000007        0.3281541923076923        0        
C2        C        0.9687500000000001        0.518519        0.3281541923076923        0        
C3        C        0.9375        0.537037        0.3281541923076923        0        
C4        C        0.9687500000000001        0.481481        0.3281541923076923        0        
C1        C        0.9375        0.574075        0.3281541923076923        0        
C2        C        0.9687500000000001        0.62963        0.3281541923076923        0        
C3        C        0.9375        0.648148        0.3281541923076923        0        
C4        C        0.9687500000000001        0.592592        0.3281541923076923        0        
C1        C        0.0        0.685186        0.3281541923076923        0        
C1        C        0.0625        0.685186        0.3281541923076923        0        
C1        C        0.125        0.685186        0.3281541923076923        0        
C1        C        0.1875        0.685186        0.3281541923076923        0        
C1        C        0.25        0.685186        0.3281541923076923        0        
C1        C        0.3125        0.685186        0.3281541923076923        0        
C1        C        0.375        0.685186        0.3281541923076923        0        
C1        C        0.4375        0.685186        0.3281541923076923        0        
C1        C        0.5        0.685186        0.3281541923076923        0        
C1        C        0.5625        0.685186        0.3281541923076923        0        
C1        C        0.625        0.685186        0.3281541923076923        0        
C1        C        0.6875        0.685186        0.3281541923076923        0        
C1        C        0.75        0.685186        0.3281541923076923        0        
C1        C        0.8125        0.685186        0.3281541923076923        0        
C1        C        0.875        0.685186        0.3281541923076923        0        
C1        C        0.9375        0.685186        0.3281541923076923        0        
C2        C        0.03125        0.740741        0.3281541923076923        0        
C2        C        0.09375        0.740741        0.3281541923076923        0        
C2        C        0.15625        0.740741        0.3281541923076923        0        
C2        C        0.21875        0.740741        0.3281541923076923        0        
C2        C        0.28125        0.740741        0.3281541923076923        0        
C2        C        0.34375        0.740741        0.3281541923076923        0        
C2        C        0.40625        0.740741        0.3281541923076923        0        
C2        C        0.46875        0.740741        0.3281541923076923        0        
C2        C        0.53125        0.740741        0.3281541923076923        0        
C2        C        0.59375        0.740741        0.3281541923076923        0        
C2        C        0.65625        0.740741        0.3281541923076923        0        
C2        C        0.71875        0.740741        0.3281541923076923        0        
C2        C        0.78125        0.740741        0.3281541923076923        0        
C2        C        0.84375        0.740741        0.3281541923076923        0        
C2        C        0.9062500000000001        0.740741        0.3281541923076923        0        
C2        C        0.9687500000000001        0.740741        0.3281541923076923        0        
C3        C        0.0        0.759259        0.3281541923076923        0        
C3        C        0.0625        0.759259        0.3281541923076923        0        
C3        C        0.125        0.759259        0.3281541923076923        0        
C3        C        0.1875        0.759259        0.3281541923076923        0        
C3        C        0.25        0.759259        0.3281541923076923        0        
C3        C        0.3125        0.759259        0.3281541923076923        0        
C3        C        0.375        0.759259        0.3281541923076923        0        
C3        C        0.4375        0.759259        0.3281541923076923        0        
C3        C        0.5        0.759259        0.3281541923076923        0        
C3        C        0.5625        0.759259        0.3281541923076923        0        
C3        C        0.625        0.759259        0.3281541923076923        0        
C3        C        0.6875        0.759259        0.3281541923076923        0        
C3        C        0.75        0.759259        0.3281541923076923        0        
C3        C        0.8125        0.759259        0.3281541923076923        0        
C3        C        0.875        0.759259        0.3281541923076923        0        
C3        C        0.9375        0.759259        0.3281541923076923        0        
C4        C        0.03125        0.703703        0.3281541923076923        0        
C4        C        0.09375        0.703703        0.3281541923076923        0        
C4        C        0.15625        0.703703        0.3281541923076923        0        
C4        C        0.21875        0.703703        0.3281541923076923        0        
C4        C        0.28125        0.703703        0.3281541923076923        0        
C4        C        0.34375        0.703703        0.3281541923076923        0        
C4        C        0.40625        0.703703        0.3281541923076923        0        
C4        C        0.46875        0.703703        0.3281541923076923        0        
C4        C        0.53125        0.703703        0.3281541923076923        0        
C4        C        0.59375        0.703703        0.3281541923076923        0        
C4        C        0.65625        0.703703        0.3281541923076923        0        
C4        C        0.71875        0.703703        0.3281541923076923        0        
C4        C        0.78125        0.703703        0.3281541923076923        0        
C4        C        0.84375        0.703703        0.3281541923076923        0        
C4        C        0.9062500000000001        0.703703        0.3281541923076923        0        
C4        C        0.9687500000000001        0.703703        0.3281541923076923        0        
C1        C        0.0        0.796297        0.3281541923076923        0        
C1        C        0.0625        0.796297        0.3281541923076923        0        
C1        C        0.125        0.796297        0.3281541923076923        0        
C1        C        0.1875        0.796297        0.3281541923076923        0        
C1        C        0.25        0.796297        0.3281541923076923        0        
C1        C        0.3125        0.796297        0.3281541923076923        0        
C1        C        0.375        0.796297        0.3281541923076923        0        
C1        C        0.4375        0.796297        0.3281541923076923        0        
C1        C        0.5        0.796297        0.3281541923076923        0        
C1        C        0.5625        0.796297        0.3281541923076923        0        
C1        C        0.625        0.796297        0.3281541923076923        0        
C1        C        0.6875        0.796297        0.3281541923076923        0        
C1        C        0.75        0.796297        0.3281541923076923        0        
C1        C        0.8125        0.796297        0.3281541923076923        0        
C1        C        0.875        0.796297        0.3281541923076923        0        
C1        C        0.9375        0.796297        0.3281541923076923        0        
C2        C        0.03125        0.851852        0.3281541923076923        0        
C2        C        0.09375        0.851852        0.3281541923076923        0        
C2        C        0.15625        0.851852        0.3281541923076923        0        
C2        C        0.21875        0.851852        0.3281541923076923        0        
C2        C        0.28125        0.851852        0.3281541923076923        0        
C2        C        0.34375        0.851852        0.3281541923076923        0        
C2        C        0.40625        0.851852        0.3281541923076923        0        
C2        C        0.46875        0.851852        0.3281541923076923        0        
C2        C        0.53125        0.851852        0.3281541923076923        0        
C2        C        0.59375        0.851852        0.3281541923076923        0        
C2        C        0.65625        0.851852        0.3281541923076923        0        
C2        C        0.71875        0.851852        0.3281541923076923        0        
C2        C        0.78125        0.851852        0.3281541923076923        0        
C2        C        0.84375        0.851852        0.3281541923076923        0        
C2        C        0.9062500000000001        0.851852        0.3281541923076923        0        
C2        C        0.9687500000000001        0.851852        0.3281541923076923        0        
C3        C        0.0        0.87037        0.3281541923076923        0        
C3        C        0.0625        0.87037        0.3281541923076923        0        
C3        C        0.125        0.87037        0.3281541923076923        0        
C3        C        0.1875        0.87037        0.3281541923076923        0        
C3        C        0.25        0.87037        0.3281541923076923        0        
C3        C        0.3125        0.87037        0.3281541923076923        0        
C3        C        0.375        0.87037        0.3281541923076923        0        
C3        C        0.4375        0.87037        0.3281541923076923        0        
C3        C        0.5        0.87037        0.3281541923076923        0        
C3        C        0.5625        0.87037        0.3281541923076923        0        
C3        C        0.625        0.87037        0.3281541923076923        0        
C3        C        0.6875        0.87037        0.3281541923076923        0        
C3        C        0.75        0.87037        0.3281541923076923        0        
C3        C        0.8125        0.87037        0.3281541923076923        0        
C3        C        0.875        0.87037        0.3281541923076923        0        
C3        C        0.9375        0.87037        0.3281541923076923        0        
C4        C        0.03125        0.814814        0.3281541923076923        0        
C4        C        0.09375        0.814814        0.3281541923076923        0        
C4        C        0.15625        0.814814        0.3281541923076923        0        
C4        C        0.21875        0.814814        0.3281541923076923        0        
C4        C        0.28125        0.814814        0.3281541923076923        0        
C4        C        0.34375        0.814814        0.3281541923076923        0        
C4        C        0.40625        0.814814        0.3281541923076923        0        
C4        C        0.46875        0.814814        0.3281541923076923        0        
C4        C        0.53125        0.814814        0.3281541923076923        0        
C4        C        0.59375        0.814814        0.3281541923076923        0        
C4        C        0.65625        0.814814        0.3281541923076923        0        
C4        C        0.71875        0.814814        0.3281541923076923        0        
C4        C        0.78125        0.814814        0.3281541923076923        0        
C4        C        0.84375        0.814814        0.3281541923076923        0        
C4        C        0.9062500000000001        0.814814        0.3281541923076923        0        
C4        C        0.9687500000000001        0.814814        0.3281541923076923        0        
C1        C        0.0        0.907408        0.3281541923076923        0        
C1        C        0.0625        0.907408        0.3281541923076923        0        
C1        C        0.125        0.907408        0.3281541923076923        0        
C1        C        0.1875        0.907408        0.3281541923076923        0        
C1        C        0.25        0.907408        0.3281541923076923        0        
C1        C        0.3125        0.907408        0.3281541923076923        0        
C1        C        0.375        0.907408        0.3281541923076923        0        
C1        C        0.4375        0.907408        0.3281541923076923        0        
C1        C        0.5        0.907408        0.3281541923076923        0        
C1        C        0.5625        0.907408        0.3281541923076923        0        
C1        C        0.625        0.907408        0.3281541923076923        0        
C1        C        0.6875        0.907408        0.3281541923076923        0        
C1        C        0.75        0.907408        0.3281541923076923        0        
C1        C        0.8125        0.907408        0.3281541923076923        0        
C1        C        0.875        0.907408        0.3281541923076923        0        
C1        C        0.9375        0.907408        0.3281541923076923        0        
C2        C        0.03125        0.962963        0.3281541923076923        0        
C2        C        0.09375        0.962963        0.3281541923076923        0        
C2        C        0.15625        0.962963        0.3281541923076923        0        
C2        C        0.21875        0.962963        0.3281541923076923        0        
C2        C        0.28125        0.962963        0.3281541923076923        0        
C2        C        0.34375        0.962963        0.3281541923076923        0        
C2        C        0.40625        0.962963        0.3281541923076923        0        
C2        C        0.46875        0.962963        0.3281541923076923        0        
C2        C        0.53125        0.962963        0.3281541923076923        0        
C2        C        0.59375        0.962963        0.3281541923076923        0        
C2        C        0.65625        0.962963        0.3281541923076923        0        
C2        C        0.71875        0.962963        0.3281541923076923        0        
C2        C        0.78125        0.962963        0.3281541923076923        0        
C2        C        0.84375        0.962963        0.3281541923076923        0        
C2        C        0.9062500000000001        0.962963        0.3281541923076923        0        
C2        C        0.9687500000000001        0.962963        0.3281541923076923        0        
C3        C        0.0        0.9814809999999999        0.3281541923076923        0        
C3        C        0.0625        0.9814809999999999        0.3281541923076923        0        
C3        C        0.125        0.9814809999999999        0.3281541923076923        0        
C3        C        0.1875        0.9814809999999999        0.3281541923076923        0        
C3        C        0.25        0.9814809999999999        0.3281541923076923        0        
C3        C        0.3125        0.9814809999999999        0.3281541923076923        0        
C3        C        0.375        0.9814809999999999        0.3281541923076923        0        
C3        C        0.4375        0.9814809999999999        0.3281541923076923        0        
C3        C        0.5        0.9814809999999999        0.3281541923076923        0        
C3        C        0.5625        0.9814809999999999        0.3281541923076923        0        
C3        C        0.625        0.9814809999999999        0.3281541923076923        0        
C3        C        0.6875        0.9814809999999999        0.3281541923076923        0        
C3        C        0.75        0.9814809999999999        0.3281541923076923        0        
C3        C        0.8125        0.9814809999999999        0.3281541923076923        0        
C3        C        0.875        0.9814809999999999        0.3281541923076923        0        
C3        C        0.9375        0.9814809999999999        0.3281541923076923        0        
C4        C        0.03125        0.925925        0.3281541923076923        0        
C4        C        0.09375        0.925925        0.3281541923076923        0        
C4        C        0.15625        0.925925        0.3281541923076923        0        
C4        C        0.21875        0.925925        0.3281541923076923        0        
C4        C        0.28125        0.925925        0.3281541923076923        0        
C4        C        0.34375        0.925925        0.3281541923076923        0        
C4        C        0.40625        0.925925        0.3281541923076923        0        
C4        C        0.46875        0.925925        0.3281541923076923        0        
C4        C        0.53125        0.925925        0.3281541923076923        0        
C4        C        0.59375        0.925925        0.3281541923076923        0        
C4        C        0.65625        0.925925        0.3281541923076923        0        
C4        C        0.71875        0.925925        0.3281541923076923        0        
C4        C        0.78125        0.925925        0.3281541923076923        0        
C4        C        0.84375        0.925925        0.3281541923076923        0        
C4        C        0.9062500000000001        0.925925        0.3281541923076923        0        
C4        C        0.9687500000000001        0.925925        0.3281541923076923        0        
C_FG        C        0.0        0.018519        0.5428971923076924        0.2        
C2        C        0.03125        0.074075        0.5428971923076924        0        
C3        C        0.0        0.092592        0.5428971923076924        0        
C4        C        0.03125        0.037037        0.5428971923076924        0        
C_FG        C        0.0        0.12963        0.5428971923076924        0.2        
C2        C        0.03125        0.185185        0.5428971923076924        0        
C3        C        0.0        0.203703        0.5428971923076924        0        
C4        C        0.03125        0.148148        0.5428971923076924        0        
C_FG        C        0.0        0.24074099999999998        0.5428971923076924        0.2        
C2        C        0.03125        0.296297        0.5428971923076924        0        
C3        C        0.0        0.314815        0.5428971923076924        0        
C4        C        0.03125        0.259259        0.5428971923076924        0        
C_FG        C        0.0        0.351852        0.5428971923076924        0.2        
C2        C        0.03125        0.407408        0.5428971923076924        0        
C3        C        0.0        0.42592500000000005        0.5428971923076924        0        
C4        C        0.03125        0.37037        0.5428971923076924        0        
C_FG        C        0.0        0.46296300000000007        0.5428971923076924        0.2        
C2        C        0.03125        0.518519        0.5428971923076924        0        
C3        C        0.0        0.537037        0.5428971923076924        0        
C4        C        0.03125        0.481481        0.5428971923076924        0        
C_FG        C        0.0        0.574075        0.5428971923076924        0.2        
C2        C        0.03125        0.62963        0.5428971923076924        0        
C3        C        0.0        0.648148        0.5428971923076924        0        
C4        C        0.03125        0.592592        0.5428971923076924        0        
C1        C        0.0625        0.018519        0.5428971923076924        0        
C2        C        0.09375        0.074075        0.5428971923076924        0        
C3        C        0.0625        0.092592        0.5428971923076924        0        
C4        C        0.09375        0.037037        0.5428971923076924        0        
C1        C        0.0625        0.12963        0.5428971923076924        0        
C2        C        0.09375        0.185185        0.5428971923076924        0        
C3        C        0.0625        0.203703        0.5428971923076924        0        
C4        C        0.09375        0.148148        0.5428971923076924        0        
C1        C        0.0625        0.24074099999999998        0.5428971923076924        0        
C2        C        0.09375        0.296297        0.5428971923076924        0        
C3        C        0.0625        0.314815        0.5428971923076924        0        
C4        C        0.09375        0.259259        0.5428971923076924        0        
C1        C        0.0625        0.351852        0.5428971923076924        0        
C2        C        0.09375        0.407408        0.5428971923076924        0        
C3        C        0.0625        0.42592500000000005        0.5428971923076924        0        
C4        C        0.09375        0.37037        0.5428971923076924        0        
C1        C        0.0625        0.46296300000000007        0.5428971923076924        0        
C2        C        0.09375        0.518519        0.5428971923076924        0        
C3        C        0.0625        0.537037        0.5428971923076924        0        
C4        C        0.09375        0.481481        0.5428971923076924        0        
C1        C        0.0625        0.574075        0.5428971923076924        0        
C2        C        0.09375        0.62963        0.5428971923076924        0        
C3        C        0.0625        0.648148        0.5428971923076924        0        
C4        C        0.09375        0.592592        0.5428971923076924        0        
C1        C        0.125        0.018519        0.5428971923076924        0        
C2        C        0.15625        0.074075        0.5428971923076924        0        
C3        C        0.125        0.092592        0.5428971923076924        0        
C4        C        0.15625        0.037037        0.5428971923076924        0        
C1        C        0.125        0.12963        0.5428971923076924        0        
C2        C        0.15625        0.185185        0.5428971923076924        0        
C3        C        0.125        0.203703        0.5428971923076924        0        
C4        C        0.15625        0.148148        0.5428971923076924        0        
C1        C        0.125        0.24074099999999998        0.5428971923076924        0        
C2        C        0.15625        0.296297        0.5428971923076924        0        
C3        C        0.125        0.314815        0.5428971923076924        0        
C4        C        0.15625        0.259259        0.5428971923076924        0        
C1        C        0.125        0.351852        0.5428971923076924        0        
C2        C        0.15625        0.407408        0.5428971923076924        0        
C3        C        0.125        0.42592500000000005        0.5428971923076924        0        
C4        C        0.15625        0.37037        0.5428971923076924        0        
C1        C        0.125        0.46296300000000007        0.5428971923076924        0        
C2        C        0.15625        0.518519        0.5428971923076924        0        
C3        C        0.125        0.537037        0.5428971923076924        0        
C4        C        0.15625        0.481481        0.5428971923076924        0        
C1        C        0.125        0.574075        0.5428971923076924        0        
C2        C        0.15625        0.62963        0.5428971923076924        0        
C3        C        0.125        0.648148        0.5428971923076924        0        
C4        C        0.15625        0.592592        0.5428971923076924        0        
C1        C        0.1875        0.018519        0.5428971923076924        0        
C2        C        0.21875        0.074075        0.5428971923076924        0        
C3        C        0.1875        0.092592        0.5428971923076924        0        
C4        C        0.21875        0.037037        0.5428971923076924        0        
C1        C        0.1875        0.12963        0.5428971923076924        0        
C2        C        0.21875        0.185185        0.5428971923076924        0        
C3        C        0.1875        0.203703        0.5428971923076924        0        
C4        C        0.21875        0.148148        0.5428971923076924        0        
C1        C        0.1875        0.24074099999999998        0.5428971923076924        0        
C2        C        0.21875        0.296297        0.5428971923076924        0        
C3        C        0.1875        0.314815        0.5428971923076924        0        
C4        C        0.21875        0.259259        0.5428971923076924        0        
C1        C        0.1875        0.351852        0.5428971923076924        0        
C2        C        0.21875        0.407408        0.5428971923076924        0        
C3        C        0.1875        0.42592500000000005        0.5428971923076924        0        
C4        C        0.21875        0.37037        0.5428971923076924        0        
C1        C        0.1875        0.46296300000000007        0.5428971923076924        0        
C2        C        0.21875        0.518519        0.5428971923076924        0        
C3        C        0.1875        0.537037        0.5428971923076924        0        
C4        C        0.21875        0.481481        0.5428971923076924        0        
C1        C        0.1875        0.574075        0.5428971923076924        0        
C2        C        0.21875        0.62963        0.5428971923076924        0        
C3        C        0.1875        0.648148        0.5428971923076924        0        
C4        C        0.21875        0.592592        0.5428971923076924        0        
C_FG        C        0.25        0.018519        0.5428971923076924        0.2        
C2        C        0.28125        0.074075        0.5428971923076924        0        
C3        C        0.25        0.092592        0.5428971923076924        0        
C4        C        0.28125        0.037037        0.5428971923076924        0        
C_FG        C        0.25        0.12963        0.5428971923076924        0.2        
C2        C        0.28125        0.185185        0.5428971923076924        0        
C3        C        0.25        0.203703        0.5428971923076924        0        
C4        C        0.28125        0.148148        0.5428971923076924        0        
C_FG        C        0.25        0.24074099999999998        0.5428971923076924        0.2        
C2        C        0.28125        0.296297        0.5428971923076924        0        
C3        C        0.25        0.314815        0.5428971923076924        0        
C4        C        0.28125        0.259259        0.5428971923076924        0        
C_FG        C        0.25        0.351852        0.5428971923076924        0.2        
C2        C        0.28125        0.407408        0.5428971923076924        0        
C3        C        0.25        0.42592500000000005        0.5428971923076924        0        
C4        C        0.28125        0.37037        0.5428971923076924        0        
C_FG        C        0.25        0.46296300000000007        0.5428971923076924        0.2        
C2        C        0.28125        0.518519        0.5428971923076924        0        
C3        C        0.25        0.537037        0.5428971923076924        0        
C4        C        0.28125        0.481481        0.5428971923076924        0        
C_FG        C        0.25        0.574075        0.5428971923076924        0.2        
C2        C        0.28125        0.62963        0.5428971923076924        0        
C3        C        0.25        0.648148        0.5428971923076924        0        
C4        C        0.28125        0.592592        0.5428971923076924        0        
C1        C        0.3125        0.018519        0.5428971923076924        0        
C2        C        0.34375        0.074075        0.5428971923076924        0        
C3        C        0.3125        0.092592        0.5428971923076924        0        
C4        C        0.34375        0.037037        0.5428971923076924        0        
C1        C        0.3125        0.12963        0.5428971923076924        0        
C2        C        0.34375        0.185185        0.5428971923076924        0        
C3        C        0.3125        0.203703        0.5428971923076924        0        
C4        C        0.34375        0.148148        0.5428971923076924        0        
C1        C        0.3125        0.24074099999999998        0.5428971923076924        0        
C2        C        0.34375        0.296297        0.5428971923076924        0        
C3        C        0.3125        0.314815        0.5428971923076924        0        
C4        C        0.34375        0.259259        0.5428971923076924        0        
C1        C        0.3125        0.351852        0.5428971923076924        0        
C2        C        0.34375        0.407408        0.5428971923076924        0        
C3        C        0.3125        0.42592500000000005        0.5428971923076924        0        
C4        C        0.34375        0.37037        0.5428971923076924        0        
C1        C        0.3125        0.46296300000000007        0.5428971923076924        0        
C2        C        0.34375        0.518519        0.5428971923076924        0        
C3        C        0.3125        0.537037        0.5428971923076924        0        
C4        C        0.34375        0.481481        0.5428971923076924        0        
C1        C        0.3125        0.574075        0.5428971923076924        0        
C2        C        0.34375        0.62963        0.5428971923076924        0        
C3        C        0.3125        0.648148        0.5428971923076924        0        
C4        C        0.34375        0.592592        0.5428971923076924        0        
C1        C        0.375        0.018519        0.5428971923076924        0        
C2        C        0.40625        0.074075        0.5428971923076924        0        
C3        C        0.375        0.092592        0.5428971923076924        0        
C4        C        0.40625        0.037037        0.5428971923076924        0        
C1        C        0.375        0.12963        0.5428971923076924        0        
C2        C        0.40625        0.185185        0.5428971923076924        0        
C3        C        0.375        0.203703        0.5428971923076924        0        
C4        C        0.40625        0.148148        0.5428971923076924        0        
C1        C        0.375        0.24074099999999998        0.5428971923076924        0        
C2        C        0.40625        0.296297        0.5428971923076924        0        
C3        C        0.375        0.314815        0.5428971923076924        0        
C4        C        0.40625        0.259259        0.5428971923076924        0        
C1        C        0.375        0.351852        0.5428971923076924        0        
C2        C        0.40625        0.407408        0.5428971923076924        0        
C3        C        0.375        0.42592500000000005        0.5428971923076924        0        
C4        C        0.40625        0.37037        0.5428971923076924        0        
C1        C        0.375        0.46296300000000007        0.5428971923076924        0        
C2        C        0.40625        0.518519        0.5428971923076924        0        
C3        C        0.375        0.537037        0.5428971923076924        0        
C4        C        0.40625        0.481481        0.5428971923076924        0        
C1        C        0.375        0.574075        0.5428971923076924        0        
C2        C        0.40625        0.62963        0.5428971923076924        0        
C3        C        0.375        0.648148        0.5428971923076924        0        
C4        C        0.40625        0.592592        0.5428971923076924        0        
C1        C        0.4375        0.018519        0.5428971923076924        0        
C2        C        0.46875        0.074075        0.5428971923076924        0        
C3        C        0.4375        0.092592        0.5428971923076924        0        
C4        C        0.46875        0.037037        0.5428971923076924        0        
C1        C        0.4375        0.12963        0.5428971923076924        0        
C2        C        0.46875        0.185185        0.5428971923076924        0        
C3        C        0.4375        0.203703        0.5428971923076924        0        
C4        C        0.46875        0.148148        0.5428971923076924        0        
C1        C        0.4375        0.24074099999999998        0.5428971923076924        0        
C2        C        0.46875        0.296297        0.5428971923076924        0        
C3        C        0.4375        0.314815        0.5428971923076924        0        
C4        C        0.46875        0.259259        0.5428971923076924        0        
C1        C        0.4375        0.351852        0.5428971923076924        0        
C2        C        0.46875        0.407408        0.5428971923076924        0        
C3        C        0.4375        0.42592500000000005        0.5428971923076924        0        
C4        C        0.46875        0.37037        0.5428971923076924        0        
C1        C        0.4375        0.46296300000000007        0.5428971923076924        0        
C2        C        0.46875        0.518519        0.5428971923076924        0        
C3        C        0.4375        0.537037        0.5428971923076924        0        
C4        C        0.46875        0.481481        0.5428971923076924        0        
C1        C        0.4375        0.574075        0.5428971923076924        0        
C2        C        0.46875        0.62963        0.5428971923076924        0        
C3        C        0.4375        0.648148        0.5428971923076924        0        
C4        C        0.46875        0.592592        0.5428971923076924        0        
C1        C        0.5        0.018519        0.5428971923076924        0        
C2        C        0.53125        0.074075        0.5428971923076924        0        
C3        C        0.5        0.092592        0.5428971923076924        0        
C4        C        0.53125        0.037037        0.5428971923076924        0        
C1        C        0.5        0.12963        0.5428971923076924        0        
C2        C        0.53125        0.185185        0.5428971923076924        0        
C3        C        0.5        0.203703        0.5428971923076924        0        
C4        C        0.53125        0.148148        0.5428971923076924        0        
C1        C        0.5        0.24074099999999998        0.5428971923076924        0        
C2        C        0.53125        0.296297        0.5428971923076924        0        
C3        C        0.5        0.314815        0.5428971923076924        0        
C4        C        0.53125        0.259259        0.5428971923076924        0        
C1        C        0.5        0.351852        0.5428971923076924        0        
C2        C        0.53125        0.407408        0.5428971923076924        0        
C3        C        0.5        0.42592500000000005        0.5428971923076924        0        
C4        C        0.53125        0.37037        0.5428971923076924        0        
C1        C        0.5        0.46296300000000007        0.5428971923076924        0        
C2        C        0.53125        0.518519        0.5428971923076924        0        
C3        C        0.5        0.537037        0.5428971923076924        0        
C4        C        0.53125        0.481481        0.5428971923076924        0        
C1        C        0.5        0.574075        0.5428971923076924        0        
C2        C        0.53125        0.62963        0.5428971923076924        0        
C3        C        0.5        0.648148        0.5428971923076924        0        
C4        C        0.53125        0.592592        0.5428971923076924        0        
C1        C        0.5625        0.018519        0.5428971923076924        0        
C2        C        0.59375        0.074075        0.5428971923076924        0        
C3        C        0.5625        0.092592        0.5428971923076924        0        
C4        C        0.59375        0.037037        0.5428971923076924        0        
C1        C        0.5625        0.12963        0.5428971923076924        0        
C2        C        0.59375        0.185185        0.5428971923076924        0        
C3        C        0.5625        0.203703        0.5428971923076924        0        
C4        C        0.59375        0.148148        0.5428971923076924        0        
C1        C        0.5625        0.24074099999999998        0.5428971923076924        0        
C2        C        0.59375        0.296297        0.5428971923076924        0        
C3        C        0.5625        0.314815        0.5428971923076924        0        
C4        C        0.59375        0.259259        0.5428971923076924        0        
C1        C        0.5625        0.351852        0.5428971923076924        0        
C2        C        0.59375        0.407408        0.5428971923076924        0        
C3        C        0.5625        0.42592500000000005        0.5428971923076924        0        
C4        C        0.59375        0.37037        0.5428971923076924        0        
C1        C        0.5625        0.46296300000000007        0.5428971923076924        0        
C2        C        0.59375        0.518519        0.5428971923076924        0        
C3        C        0.5625        0.537037        0.5428971923076924        0        
C4        C        0.59375        0.481481        0.5428971923076924        0        
C1        C        0.5625        0.574075        0.5428971923076924        0        
C2        C        0.59375        0.62963        0.5428971923076924        0        
C3        C        0.5625        0.648148        0.5428971923076924        0        
C4        C        0.59375        0.592592        0.5428971923076924        0        
C1        C        0.625        0.018519        0.5428971923076924        0        
C2        C        0.65625        0.074075        0.5428971923076924        0        
C3        C        0.625        0.092592        0.5428971923076924        0        
C4        C        0.65625        0.037037        0.5428971923076924        0        
C1        C        0.625        0.12963        0.5428971923076924        0        
C2        C        0.65625        0.185185        0.5428971923076924        0        
C3        C        0.625        0.203703        0.5428971923076924        0        
C4        C        0.65625        0.148148        0.5428971923076924        0        
C1        C        0.625        0.24074099999999998        0.5428971923076924        0        
C2        C        0.65625        0.296297        0.5428971923076924        0        
C3        C        0.625        0.314815        0.5428971923076924        0        
C4        C        0.65625        0.259259        0.5428971923076924        0        
C1        C        0.625        0.351852        0.5428971923076924        0        
C2        C        0.65625        0.407408        0.5428971923076924        0        
C3        C        0.625        0.42592500000000005        0.5428971923076924        0        
C4        C        0.65625        0.37037        0.5428971923076924        0        
C1        C        0.625        0.46296300000000007        0.5428971923076924        0        
C2        C        0.65625        0.518519        0.5428971923076924        0        
C3        C        0.625        0.537037        0.5428971923076924        0        
C4        C        0.65625        0.481481        0.5428971923076924        0        
C1        C        0.625        0.574075        0.5428971923076924        0        
C2        C        0.65625        0.62963        0.5428971923076924        0        
C3        C        0.625        0.648148        0.5428971923076924        0        
C4        C        0.65625        0.592592        0.5428971923076924        0        
C1        C        0.6875        0.018519        0.5428971923076924        0        
C2        C        0.71875        0.074075        0.5428971923076924        0        
C3        C        0.6875        0.092592        0.5428971923076924        0        
C4        C        0.71875        0.037037        0.5428971923076924        0        
C1        C        0.6875        0.12963        0.5428971923076924        0        
C2        C        0.71875        0.185185        0.5428971923076924        0        
C3        C        0.6875        0.203703        0.5428971923076924        0        
C4        C        0.71875        0.148148        0.5428971923076924        0        
C1        C        0.6875        0.24074099999999998        0.5428971923076924        0        
C2        C        0.71875        0.296297        0.5428971923076924        0        
C3        C        0.6875        0.314815        0.5428971923076924        0        
C4        C        0.71875        0.259259        0.5428971923076924        0        
C1        C        0.6875        0.351852        0.5428971923076924        0        
C2        C        0.71875        0.407408        0.5428971923076924        0        
C3        C        0.6875        0.42592500000000005        0.5428971923076924        0        
C4        C        0.71875        0.37037        0.5428971923076924        0        
C1        C        0.6875        0.46296300000000007        0.5428971923076924        0        
C2        C        0.71875        0.518519        0.5428971923076924        0        
C3        C        0.6875        0.537037        0.5428971923076924        0        
C4        C        0.71875        0.481481        0.5428971923076924        0        
C1        C        0.6875        0.574075        0.5428971923076924        0        
C2        C        0.71875        0.62963        0.5428971923076924        0        
C3        C        0.6875        0.648148        0.5428971923076924        0        
C4        C        0.71875        0.592592        0.5428971923076924        0        
C_FG        C        0.75        0.018519        0.5428971923076924        0.2        
C2        C        0.78125        0.074075        0.5428971923076924        0        
C3        C        0.75        0.092592        0.5428971923076924        0        
C4        C        0.78125        0.037037        0.5428971923076924        0        
C_FG        C        0.75        0.12963        0.5428971923076924        0.2        
C2        C        0.78125        0.185185        0.5428971923076924        0        
C3        C        0.75        0.203703        0.5428971923076924        0        
C4        C        0.78125        0.148148        0.5428971923076924        0        
C_FG        C        0.75        0.24074099999999998        0.5428971923076924        0.2        
C2        C        0.78125        0.296297        0.5428971923076924        0        
C3        C        0.75        0.314815        0.5428971923076924        0        
C4        C        0.78125        0.259259        0.5428971923076924        0        
C_FG        C        0.75        0.351852        0.5428971923076924        0.2        
C2        C        0.78125        0.407408        0.5428971923076924        0        
C3        C        0.75        0.42592500000000005        0.5428971923076924        0        
C4        C        0.78125        0.37037        0.5428971923076924        0        
C_FG        C        0.75        0.46296300000000007        0.5428971923076924        0.2        
C2        C        0.78125        0.518519        0.5428971923076924        0        
C3        C        0.75        0.537037        0.5428971923076924        0        
C4        C        0.78125        0.481481        0.5428971923076924        0        
C_FG        C        0.75        0.574075        0.5428971923076924        0.2        
C2        C        0.78125        0.62963        0.5428971923076924        0        
C3        C        0.75        0.648148        0.5428971923076924        0        
C4        C        0.78125        0.592592        0.5428971923076924        0        
C1        C        0.8125        0.018519        0.5428971923076924        0        
C2        C        0.84375        0.074075        0.5428971923076924        0        
C3        C        0.8125        0.092592        0.5428971923076924        0        
C4        C        0.84375        0.037037        0.5428971923076924        0        
C1        C        0.8125        0.12963        0.5428971923076924        0        
C2        C        0.84375        0.185185        0.5428971923076924        0        
C3        C        0.8125        0.203703        0.5428971923076924        0        
C4        C        0.84375        0.148148        0.5428971923076924        0        
C1        C        0.8125        0.24074099999999998        0.5428971923076924        0        
C2        C        0.84375        0.296297        0.5428971923076924        0        
C3        C        0.8125        0.314815        0.5428971923076924        0        
C4        C        0.84375        0.259259        0.5428971923076924        0        
C1        C        0.8125        0.351852        0.5428971923076924        0        
C2        C        0.84375        0.407408        0.5428971923076924        0        
C3        C        0.8125        0.42592500000000005        0.5428971923076924        0        
C4        C        0.84375        0.37037        0.5428971923076924        0        
C1        C        0.8125        0.46296300000000007        0.5428971923076924        0        
C2        C        0.84375        0.518519        0.5428971923076924        0        
C3        C        0.8125        0.537037        0.5428971923076924        0        
C4        C        0.84375        0.481481        0.5428971923076924        0        
C1        C        0.8125        0.574075        0.5428971923076924        0        
C2        C        0.84375        0.62963        0.5428971923076924        0        
C3        C        0.8125        0.648148        0.5428971923076924        0        
C4        C        0.84375        0.592592        0.5428971923076924        0        
C1        C        0.875        0.018519        0.5428971923076924        0        
C2        C        0.9062500000000001        0.074075        0.5428971923076924        0        
C3        C        0.875        0.092592        0.5428971923076924        0        
C4        C        0.9062500000000001        0.037037        0.5428971923076924        0        
C1        C        0.875        0.12963        0.5428971923076924        0        
C2        C        0.9062500000000001        0.185185        0.5428971923076924        0        
C3        C        0.875        0.203703        0.5428971923076924        0        
C4        C        0.9062500000000001        0.148148        0.5428971923076924        0        
C1        C        0.875        0.24074099999999998        0.5428971923076924        0        
C2        C        0.9062500000000001        0.296297        0.5428971923076924        0        
C3        C        0.875        0.314815        0.5428971923076924        0        
C4        C        0.9062500000000001        0.259259        0.5428971923076924        0        
C1        C        0.875        0.351852        0.5428971923076924        0        
C2        C        0.9062500000000001        0.407408        0.5428971923076924        0        
C3        C        0.875        0.42592500000000005        0.5428971923076924        0        
C4        C        0.9062500000000001        0.37037        0.5428971923076924        0        
C1        C        0.875        0.46296300000000007        0.5428971923076924        0        
C2        C        0.9062500000000001        0.518519        0.5428971923076924        0        
C3        C        0.875        0.537037        0.5428971923076924        0        
C4        C        0.9062500000000001        0.481481        0.5428971923076924        0        
C1        C        0.875        0.574075        0.5428971923076924        0        
C2        C        0.9062500000000001        0.62963        0.5428971923076924        0        
C3        C        0.875        0.648148        0.5428971923076924        0        
C4        C        0.9062500000000001        0.592592        0.5428971923076924        0        
C1        C        0.9375        0.018519        0.5428971923076924        0        
C2        C        0.9687500000000001        0.074075        0.5428971923076924        0        
C3        C        0.9375        0.092592        0.5428971923076924        0        
C4        C        0.9687500000000001        0.037037        0.5428971923076924        0        
C1        C        0.9375        0.12963        0.5428971923076924        0        
C2        C        0.9687500000000001        0.185185        0.5428971923076924        0        
C3        C        0.9375        0.203703        0.5428971923076924        0        
C4        C        0.9687500000000001        0.148148        0.5428971923076924        0        
C1        C        0.9375        0.24074099999999998        0.5428971923076924        0        
C2        C        0.9687500000000001        0.296297        0.5428971923076924        0        
C3        C        0.9375        0.314815        0.5428971923076924        0        
C4        C        0.9687500000000001        0.259259        0.5428971923076924        0        
C1        C        0.9375        0.351852        0.5428971923076924        0        
C2        C        0.9687500000000001        0.407408        0.5428971923076924        0        
C3        C        0.9375        0.42592500000000005        0.5428971923076924        0        
C4        C        0.9687500000000001        0.37037        0.5428971923076924        0        
C1        C        0.9375        0.46296300000000007        0.5428971923076924        0        
C2        C        0.9687500000000001        0.518519        0.5428971923076924        0        
C3        C        0.9375        0.537037        0.5428971923076924        0        
C4        C        0.9687500000000001        0.481481        0.5428971923076924        0        
C1        C        0.9375        0.574075        0.5428971923076924        0        
C2        C        0.9687500000000001        0.62963        0.5428971923076924        0        
C3        C        0.9375        0.648148        0.5428971923076924        0        
C4        C        0.9687500000000001        0.592592        0.5428971923076924        0        
C_FG        C        0.0        0.685186        0.5428971923076924        0.2        
C1        C        0.0625        0.685186        0.5428971923076924        0        
C1        C        0.125        0.685186        0.5428971923076924        0        
C1        C        0.1875        0.685186        0.5428971923076924        0        
C_FG        C        0.25        0.685186        0.5428971923076924        0.2        
C1        C        0.3125        0.685186        0.5428971923076924        0        
C1        C        0.375        0.685186        0.5428971923076924        0        
C1        C        0.4375        0.685186        0.5428971923076924        0        
C1        C        0.5        0.685186        0.5428971923076924        0        
C1        C        0.5625        0.685186        0.5428971923076924        0        
C1        C        0.625        0.685186        0.5428971923076924        0        
C1        C        0.6875        0.685186        0.5428971923076924        0        
C_FG        C        0.75        0.685186        0.5428971923076924        0.2        
C1        C        0.8125        0.685186        0.5428971923076924        0        
C1        C        0.875        0.685186        0.5428971923076924        0        
C1        C        0.9375        0.685186        0.5428971923076924        0        
C2        C        0.03125        0.740741        0.5428971923076924        0        
C2        C        0.09375        0.740741        0.5428971923076924        0        
C2        C        0.15625        0.740741        0.5428971923076924        0        
C2        C        0.21875        0.740741        0.5428971923076924        0        
C2        C        0.28125        0.740741        0.5428971923076924        0        
C2        C        0.34375        0.740741        0.5428971923076924        0        
C2        C        0.40625        0.740741        0.5428971923076924        0        
C2        C        0.46875        0.740741        0.5428971923076924        0        
C2        C        0.53125        0.740741        0.5428971923076924        0        
C2        C        0.59375        0.740741        0.5428971923076924        0        
C2        C        0.65625        0.740741        0.5428971923076924        0        
C2        C        0.71875        0.740741        0.5428971923076924        0        
C2        C        0.78125        0.740741        0.5428971923076924        0        
C2        C        0.84375        0.740741        0.5428971923076924        0        
C2        C        0.9062500000000001        0.740741        0.5428971923076924        0        
C2        C        0.9687500000000001        0.740741        0.5428971923076924        0        
C3        C        0.0        0.759259        0.5428971923076924        0        
C3        C        0.0625        0.759259        0.5428971923076924        0        
C3        C        0.125        0.759259        0.5428971923076924        0        
C3        C        0.1875        0.759259        0.5428971923076924        0        
C3        C        0.25        0.759259        0.5428971923076924        0        
C3        C        0.3125        0.759259        0.5428971923076924        0        
C3        C        0.375        0.759259        0.5428971923076924        0        
C3        C        0.4375        0.759259        0.5428971923076924        0        
C3        C        0.5        0.759259        0.5428971923076924        0        
C3        C        0.5625        0.759259        0.5428971923076924        0        
C3        C        0.625        0.759259        0.5428971923076924        0        
C3        C        0.6875        0.759259        0.5428971923076924        0        
C3        C        0.75        0.759259        0.5428971923076924        0        
C3        C        0.8125        0.759259        0.5428971923076924        0        
C3        C        0.875        0.759259        0.5428971923076924        0        
C3        C        0.9375        0.759259        0.5428971923076924        0        
C4        C        0.03125        0.703703        0.5428971923076924        0        
C4        C        0.09375        0.703703        0.5428971923076924        0        
C4        C        0.15625        0.703703        0.5428971923076924        0        
C4        C        0.21875        0.703703        0.5428971923076924        0        
C4        C        0.28125        0.703703        0.5428971923076924        0        
C4        C        0.34375        0.703703        0.5428971923076924        0        
C4        C        0.40625        0.703703        0.5428971923076924        0        
C4        C        0.46875        0.703703        0.5428971923076924        0        
C4        C        0.53125        0.703703        0.5428971923076924        0        
C4        C        0.59375        0.703703        0.5428971923076924        0        
C4        C        0.65625        0.703703        0.5428971923076924        0        
C4        C        0.71875        0.703703        0.5428971923076924        0        
C4        C        0.78125        0.703703        0.5428971923076924        0        
C4        C        0.84375        0.703703        0.5428971923076924        0        
C4        C        0.9062500000000001        0.703703        0.5428971923076924        0        
C4        C        0.9687500000000001        0.703703        0.5428971923076924        0        
C_FG        C        0.0        0.796297        0.5428971923076924        0.2        
C1        C        0.0625        0.796297        0.5428971923076924        0        
C1        C        0.125        0.796297        0.5428971923076924        0        
C1        C        0.1875        0.796297        0.5428971923076924        0        
C_FG        C        0.25        0.796297        0.5428971923076924        0.2        
C1        C        0.3125        0.796297        0.5428971923076924        0        
C1        C        0.375        0.796297        0.5428971923076924        0        
C1        C        0.4375        0.796297        0.5428971923076924        0        
C1        C        0.5        0.796297        0.5428971923076924        0        
C1        C        0.5625        0.796297        0.5428971923076924        0        
C1        C        0.625        0.796297        0.5428971923076924        0        
C1        C        0.6875        0.796297        0.5428971923076924        0        
C_FG        C        0.75        0.796297        0.5428971923076924        0.2        
C1        C        0.8125        0.796297        0.5428971923076924        0        
C1        C        0.875        0.796297        0.5428971923076924        0        
C1        C        0.9375        0.796297        0.5428971923076924        0        
C2        C        0.03125        0.851852        0.5428971923076924        0        
C2        C        0.09375        0.851852        0.5428971923076924        0        
C2        C        0.15625        0.851852        0.5428971923076924        0        
C2        C        0.21875        0.851852        0.5428971923076924        0        
C2        C        0.28125        0.851852        0.5428971923076924        0        
C2        C        0.34375        0.851852        0.5428971923076924        0        
C2        C        0.40625        0.851852        0.5428971923076924        0        
C2        C        0.46875        0.851852        0.5428971923076924        0        
C2        C        0.53125        0.851852        0.5428971923076924        0        
C2        C        0.59375        0.851852        0.5428971923076924        0        
C2        C        0.65625        0.851852        0.5428971923076924        0        
C2        C        0.71875        0.851852        0.5428971923076924        0        
C2        C        0.78125        0.851852        0.5428971923076924        0        
C2        C        0.84375        0.851852        0.5428971923076924        0        
C2        C        0.9062500000000001        0.851852        0.5428971923076924        0        
C2        C        0.9687500000000001        0.851852        0.5428971923076924        0        
C3        C        0.0        0.87037        0.5428971923076924        0        
C3        C        0.0625        0.87037        0.5428971923076924        0        
C3        C        0.125        0.87037        0.5428971923076924        0        
C3        C        0.1875        0.87037        0.5428971923076924        0        
C3        C        0.25        0.87037        0.5428971923076924        0        
C3        C        0.3125        0.87037        0.5428971923076924        0        
C3        C        0.375        0.87037        0.5428971923076924        0        
C3        C        0.4375        0.87037        0.5428971923076924        0        
C3        C        0.5        0.87037        0.5428971923076924        0        
C3        C        0.5625        0.87037        0.5428971923076924        0        
C3        C        0.625        0.87037        0.5428971923076924        0        
C3        C        0.6875        0.87037        0.5428971923076924        0        
C3        C        0.75        0.87037        0.5428971923076924        0        
C3        C        0.8125        0.87037        0.5428971923076924        0        
C3        C        0.875        0.87037        0.5428971923076924        0        
C3        C        0.9375        0.87037        0.5428971923076924        0        
C4        C        0.03125        0.814814        0.5428971923076924        0        
C4        C        0.09375        0.814814        0.5428971923076924        0        
C4        C        0.15625        0.814814        0.5428971923076924        0        
C4        C        0.21875        0.814814        0.5428971923076924        0        
C4        C        0.28125        0.814814        0.5428971923076924        0        
C4        C        0.34375        0.814814        0.5428971923076924        0        
C4        C        0.40625        0.814814        0.5428971923076924        0        
C4        C        0.46875        0.814814        0.5428971923076924        0        
C4        C        0.53125        0.814814        0.5428971923076924        0        
C4        C        0.59375        0.814814        0.5428971923076924        0        
C4        C        0.65625        0.814814        0.5428971923076924        0        
C4        C        0.71875        0.814814        0.5428971923076924        0        
C4        C        0.78125        0.814814        0.5428971923076924        0        
C4        C        0.84375        0.814814        0.5428971923076924        0        
C4        C        0.9062500000000001        0.814814        0.5428971923076924        0        
C4        C        0.9687500000000001        0.814814        0.5428971923076924        0        
C_FG        C        0.0        0.907408        0.5428971923076924        0.2        
C1        C        0.0625        0.907408        0.5428971923076924        0        
C1        C        0.125        0.907408        0.5428971923076924        0        
C1        C        0.1875        0.907408        0.5428971923076924        0        
C_FG        C        0.25        0.907408        0.5428971923076924        0.2        
C1        C        0.3125        0.907408        0.5428971923076924        0        
C1        C        0.375        0.907408        0.5428971923076924        0        
C1        C        0.4375        0.907408        0.5428971923076924        0        
C1        C        0.5        0.907408        0.5428971923076924        0        
C1        C        0.5625        0.907408        0.5428971923076924        0        
C1        C        0.625        0.907408        0.5428971923076924        0        
C1        C        0.6875        0.907408        0.5428971923076924        0        
C_FG        C        0.75        0.907408        0.5428971923076924        0.2        
C1        C        0.8125        0.907408        0.5428971923076924        0        
C1        C        0.875        0.907408        0.5428971923076924        0        
C1        C        0.9375        0.907408        0.5428971923076924        0        
C2        C        0.03125        0.962963        0.5428971923076924        0        
C2        C        0.09375        0.962963        0.5428971923076924        0        
C2        C        0.15625        0.962963        0.5428971923076924        0        
C2        C        0.21875        0.962963        0.5428971923076924        0        
C2        C        0.28125        0.962963        0.5428971923076924        0        
C2        C        0.34375        0.962963        0.5428971923076924        0        
C2        C        0.40625        0.962963        0.5428971923076924        0        
C2        C        0.46875        0.962963        0.5428971923076924        0        
C2        C        0.53125        0.962963        0.5428971923076924        0        
C2        C        0.59375        0.962963        0.5428971923076924        0        
C2        C        0.65625        0.962963        0.5428971923076924        0        
C2        C        0.71875        0.962963        0.5428971923076924        0        
C2        C        0.78125        0.962963        0.5428971923076924        0        
C2        C        0.84375        0.962963        0.5428971923076924        0        
C2        C        0.9062500000000001        0.962963        0.5428971923076924        0        
C2        C        0.9687500000000001        0.962963        0.5428971923076924        0        
C3        C        0.0        0.9814809999999999        0.5428971923076924        0        
C3        C        0.0625        0.9814809999999999        0.5428971923076924        0        
C3        C        0.125        0.9814809999999999        0.5428971923076924        0        
C3        C        0.1875        0.9814809999999999        0.5428971923076924        0        
C3        C        0.25        0.9814809999999999        0.5428971923076924        0        
C3        C        0.3125        0.9814809999999999        0.5428971923076924        0        
C3        C        0.375        0.9814809999999999        0.5428971923076924        0        
C3        C        0.4375        0.9814809999999999        0.5428971923076924        0        
C3        C        0.5        0.9814809999999999        0.5428971923076924        0        
C3        C        0.5625        0.9814809999999999        0.5428971923076924        0        
C3        C        0.625        0.9814809999999999        0.5428971923076924        0        
C3        C        0.6875        0.9814809999999999        0.5428971923076924        0        
C3        C        0.75        0.9814809999999999        0.5428971923076924        0        
C3        C        0.8125        0.9814809999999999        0.5428971923076924        0        
C3        C        0.875        0.9814809999999999        0.5428971923076924        0        
C3        C        0.9375        0.9814809999999999        0.5428971923076924        0        
C4        C        0.03125        0.925925        0.5428971923076924        0        
C4        C        0.09375        0.925925        0.5428971923076924        0        
C4        C        0.15625        0.925925        0.5428971923076924        0        
C4        C        0.21875        0.925925        0.5428971923076924        0        
C4        C        0.28125        0.925925        0.5428971923076924        0        
C4        C        0.34375        0.925925        0.5428971923076924        0        
C4        C        0.40625        0.925925        0.5428971923076924        0        
C4        C        0.46875        0.925925        0.5428971923076924        0        
C4        C        0.53125        0.925925        0.5428971923076924        0        
C4        C        0.59375        0.925925        0.5428971923076924        0        
C4        C        0.65625        0.925925        0.5428971923076924        0        
C4        C        0.71875        0.925925        0.5428971923076924        0        
C4        C        0.78125        0.925925        0.5428971923076924        0        
C4        C        0.84375        0.925925        0.5428971923076924        0        
C4        C        0.9062500000000001        0.925925        0.5428971923076924        0        
C4        C        0.9687500000000001        0.925925        0.5428971923076924        0        
O_OH        O        0.0        0.018519        0.021551217948717945        -0.64        
O_OH        O        0.0        0.12963        0.021551217948717945        -0.64        
O_OH        O        0.0        0.24074099999999998        0.021551217948717945        -0.64        
O_OH        O        0.0        0.351852        0.021551217948717945        -0.64        
O_OH        O        0.0        0.46296300000000007        0.021551217948717945        -0.64        
O_OH        O        0.0        0.574075        0.021551217948717945        -0.64        
O_OH        O        0.25        0.018519        0.021551217948717945        -0.64        
O_OH        O        0.25        0.12963        0.021551217948717945        -0.64        
O_OH        O        0.25        0.24074099999999998        0.021551217948717945        -0.64        
O_OH        O        0.25        0.351852        0.021551217948717945        -0.64        
O_OH        O        0.25        0.46296300000000007        0.021551217948717945        -0.64        
O_OH        O        0.25        0.574075        0.021551217948717945        -0.64        
O_OH        O        0.75        0.018519        0.021551217948717945        -0.64        
O_OH        O        0.75        0.12963        0.021551217948717945        -0.64        
O_OH        O        0.75        0.24074099999999998        0.021551217948717945        -0.64        
O_OH        O        0.75        0.351852        0.021551217948717945        -0.64        
O_OH        O        0.75        0.46296300000000007        0.021551217948717945        -0.64        
O_OH        O        0.75        0.574075        0.021551217948717945        -0.64        
O_OH        O        0.0        0.685186        0.021551217948717945        -0.64        
O_OH        O        0.25        0.685186        0.021551217948717945        -0.64        
O_OH        O        0.75        0.685186        0.021551217948717945        -0.64        
O_OH        O        0.0        0.796297        0.021551217948717945        -0.64        
O_OH        O        0.25        0.796297        0.021551217948717945        -0.64        
O_OH        O        0.75        0.796297        0.021551217948717945        -0.64        
O_OH        O        0.0        0.907408        0.021551217948717945        -0.64        
O_OH        O        0.25        0.907408        0.021551217948717945        -0.64        
O_OH        O        0.75        0.907408        0.021551217948717945        -0.64        
O_OH        O        0.0        0.018519        0.6347563461538461        -0.64        
O_OH        O        0.0        0.12963        0.6347563461538461        -0.64        
O_OH        O        0.0        0.24074099999999998        0.6347563461538461        -0.64        
O_OH        O        0.0        0.351852        0.6347563461538461        -0.64        
O_OH        O        0.0        0.46296300000000007        0.6347563461538461        -0.64        
O_OH        O        0.0        0.574075        0.6347563461538461        -0.64        
O_OH        O        0.25        0.018519        0.6347563461538461        -0.64        
O_OH        O        0.25        0.12963        0.6347563461538461        -0.64        
O_OH        O        0.25        0.24074099999999998        0.6347563461538461        -0.64        
O_OH        O        0.25        0.351852        0.6347563461538461        -0.64        
O_OH        O        0.25        0.46296300000000007        0.6347563461538461        -0.64        
O_OH        O        0.25        0.574075        0.6347563461538461        -0.64        
O_OH        O        0.75        0.018519        0.6347563461538461        -0.64        
O_OH        O        0.75        0.12963        0.6347563461538461        -0.64        
O_OH        O        0.75        0.24074099999999998        0.6347563461538461        -0.64        
O_OH        O        0.75        0.351852        0.6347563461538461        -0.64        
O_OH        O        0.75        0.46296300000000007        0.6347563461538461        -0.64        
O_OH        O        0.75        0.574075        0.6347563461538461        -0.64        
O_OH        O        0.0        0.685186        0.6347563461538461        -0.64        
O_OH        O        0.25        0.685186        0.6347563461538461        -0.64        
O_OH        O        0.75        0.685186        0.6347563461538461        -0.64        
O_OH        O        0.0        0.796297        0.6347563461538461        -0.64        
O_OH        O        0.25        0.796297        0.6347563461538461        -0.64        
O_OH        O        0.75        0.796297        0.6347563461538461        -0.64        
O_OH        O        0.0        0.907408        0.6347563461538461        -0.64        
O_OH        O        0.25        0.907408        0.6347563461538461        -0.64        
O_OH        O        0.75        0.907408        0.6347563461538461        -0.64        
H_OH        H        -0.01503358517424293        0.03617884722548768        0.0        0.44        
H_OH        H        0.01100148282088093        0.1501849542238995        0.0        0.44        
H_OH        H        -0.0018245264406412866        0.2641195366254143        0.0        0.44        
H_OH        H        -9.252533054263612e-05        0.3753052583979606        0.0        0.44        
H_OH        H        0.010350192423883905        0.4838714204688154        0.0        0.44        
H_OH        H        -0.003668801605126143        0.5972240503669866        0.0        0.44        
H_OH        H        0.23419829921927365        0.03545736290072837        0.0        0.44        
H_OH        H        0.22724120926003427        0.13167337253601072        0.0        0.44        
H_OH        H        0.2722020120573119        0.24626895410881092        0.0        0.44        
H_OH        H        0.26057088397677813        0.3726437292747228        0.0        0.44        
H_OH        H        0.2597864864729499        0.4841555746596367        0.0        0.44        
H_OH        H        0.2609090071764713        0.5946818331758114        0.0        0.44        
H_OH        H        0.7613218578754636        0.03888978063256823        0.0        0.44        
H_OH        H        0.7601428763330427        0.1506452243261753        0.0        0.44        
H_OH        H        0.7435273846475244        0.2632334611540981        0.0        0.44        
H_OH        H        0.7714829021948227        0.3598311138268515        0.0        0.44        
H_OH        H        0.7728340350432289        0.4637112024817757        0.0        0.44        
H_OH        H        0.7429689586355614        0.5963900945963465        0.0        0.44        
H_OH        H        0.02276653041093408        0.6871363904706128        0.0        0.44        
H_OH        H        0.27267102358360906        0.6880804071811816        0.0        0.44        
H_OH        H        0.7276626307127789        0.6901058074155081        0.0        0.44        
H_OH        H        -0.022814597596197493        0.7975196769971855        0.0        0.44        
H_OH        H        0.26134250722500435        0.8166556705434864        0.0        0.44        
H_OH        H        0.7272254260856637        0.7981457733826136        0.0        0.44        
H_OH        H        0.016880214506705543        0.9232117913516724        0.0        0.44        
H_OH        H        0.22804643577099554        0.9138980008084558        0.0        0.44        
H_OH        H        0.7577396279430958        0.9294745549823328        0.0        0.44        
H_OH        H        0.015457534833600647        0.03578881613225729        0.6563075641025641        0.44        
H_OH        H        0.02003815307052499        0.14089445946519968        0.6563075641025641        0.44        
H_OH        H        -0.0012788063262801172        0.2641576785692328        0.6563075641025641        0.44        
H_OH        H        0.009911218498507315        0.37298339413732856        0.6563075641025641        0.44        
H_OH        H        0.021522483940121063        0.4708288916868753        0.6563075641025641        0.44        
H_OH        H        0.011789824948888363        0.5941640534640785        0.6563075641025641        0.44        
H_OH        H        0.2727837674143878        0.020244265264339856        0.6563075641025641        0.44        
H_OH        H        0.2720770407810618        0.13566243201384337        0.6563075641025641        0.44        
H_OH        H        0.23516641837082305        0.2585782030346275        0.6563075641025641        0.44        
H_OH        H        0.26523455073551744        0.3693293965031847        0.6563075641025641        0.44        
H_OH        H        0.2501472528891543        0.4864159635546261        0.6563075641025641        0.44        
H_OH        H        0.2324910138639185        0.5891405582720529        0.6563075641025641        0.44        
H_OH        H        0.7606062390199128        0.039291744650519184        0.6563075641025641        0.44        
H_OH        H        0.7535173428402165        0.1528038132335276        0.6563075641025641        0.44        
H_OH        H        0.7271570801731294        0.24110445069035114        0.6563075641025641        0.44        
H_OH        H        0.7279573051023852        0.3580153811964934        0.6563075641025641        0.44        
H_OH        H        0.7282581868272991        0.4701651880072648        0.6563075641025641        0.44        
H_OH        H        0.7339584090841151        0.5907740235758405        0.6563075641025641        0.44        
H_OH        H        -0.020330534049294215        0.6958840670824976        0.6563075641025641        0.44        
H_OH        H        0.24562801055366174        0.7082059803596338        0.6563075641025641        0.44        
H_OH        H        0.7323540264321551        0.7000821609420569        0.6563075641025641        0.44        
H_OH        H        -0.004024158109088729        0.8193837363946613        0.6563075641025641        0.44        
H_OH        H        0.27127692933578        0.8048379881943882        0.6563075641025641        0.44        
H_OH        H        0.7537187816693335        0.8194376437579464        0.6563075641025641        0.44        
H_OH        H        0.01881928719181409        0.9207047522755044        0.6563075641025641        0.44        
H_OH        H        0.2692239357117617        0.9200799966238488        0.6563075641025641        0.44        
H_OH        H        0.7310677617852169        0.9205346768927456        0.6563075641025641        0.44        
