data_graphite_ortho

_audit_creation_method RASPA-1.0
_audit_creation_date 2012-2-3
_audit_author_name 'David Dubbeldam'

_cell_length_a    22.14    
_cell_length_b    38.34    
_cell_length_c    22.2    
_cell_angle_alpha 90
_cell_angle_beta  90
_cell_angle_gamma 90
_cell_volume      18844.42      

_symmetry_cell_setting          triclinic
_symmetry_space_group_name_Hall 'P 1'
_symmetry_space_group_name_H-M  'P 1'
_symmetry_Int_Tables_number     1

_symmetry_equiv_pos_as_xyz 'x,y,z'

loop_
_atom_site_label
_atom_site_type_symbol
_atom_site_fract_x
_atom_site_fract_y
_atom_site_fract_z
_atom_site_charge
C_FG        C        0.0        0.018519        0.07969364864864865        0.2        
C2        C        0.055556        0.074075        0.07969364864864865        0        
C3        C        0.0        0.092592        0.07969364864864865        0        
C4        C        0.055556        0.037037        0.07969364864864865        0        
C_FG        C        0.0        0.12963        0.07969364864864865        0.2        
C2        C        0.055556        0.185185        0.07969364864864865        0        
C3        C        0.0        0.203703        0.07969364864864865        0        
C4        C        0.055556        0.148148        0.07969364864864865        0        
C_FG        C        0.0        0.24074099999999998        0.07969364864864865        0.2        
C2        C        0.055556        0.296297        0.07969364864864865        0        
C3        C        0.0        0.314815        0.07969364864864865        0        
C4        C        0.055556        0.259259        0.07969364864864865        0        
C_FG        C        0.0        0.351852        0.07969364864864865        0.2        
C2        C        0.055556        0.407408        0.07969364864864865        0        
C3        C        0.0        0.42592500000000005        0.07969364864864865        0        
C4        C        0.055556        0.37037        0.07969364864864865        0        
C_FG        C        0.0        0.46296300000000007        0.07969364864864865        0.2        
C2        C        0.055556        0.518519        0.07969364864864865        0        
C3        C        0.0        0.537037        0.07969364864864865        0        
C4        C        0.055556        0.481481        0.07969364864864865        0        
C_FG        C        0.0        0.574075        0.07969364864864865        0.2        
C2        C        0.055556        0.62963        0.07969364864864865        0        
C3        C        0.0        0.648148        0.07969364864864865        0        
C4        C        0.055556        0.592592        0.07969364864864865        0        
C1        C        0.11111100000000002        0.018519        0.07969364864864865        0        
C2        C        0.166667        0.074075        0.07969364864864865        0        
C3        C        0.11111100000000002        0.092592        0.07969364864864865        0        
C4        C        0.166667        0.037037        0.07969364864864865        0        
C1        C        0.11111100000000002        0.12963        0.07969364864864865        0        
C2        C        0.166667        0.185185        0.07969364864864865        0        
C3        C        0.11111100000000002        0.203703        0.07969364864864865        0        
C4        C        0.166667        0.148148        0.07969364864864865        0        
C1        C        0.11111100000000002        0.24074099999999998        0.07969364864864865        0        
C2        C        0.166667        0.296297        0.07969364864864865        0        
C3        C        0.11111100000000002        0.314815        0.07969364864864865        0        
C4        C        0.166667        0.259259        0.07969364864864865        0        
C1        C        0.11111100000000002        0.351852        0.07969364864864865        0        
C2        C        0.166667        0.407408        0.07969364864864865        0        
C3        C        0.11111100000000002        0.42592500000000005        0.07969364864864865        0        
C4        C        0.166667        0.37037        0.07969364864864865        0        
C1        C        0.11111100000000002        0.46296300000000007        0.07969364864864865        0        
C2        C        0.166667        0.518519        0.07969364864864865        0        
C3        C        0.11111100000000002        0.537037        0.07969364864864865        0        
C4        C        0.166667        0.481481        0.07969364864864865        0        
C1        C        0.11111100000000002        0.574075        0.07969364864864865        0        
C2        C        0.166667        0.62963        0.07969364864864865        0        
C3        C        0.11111100000000002        0.648148        0.07969364864864865        0        
C4        C        0.166667        0.592592        0.07969364864864865        0        
C_FG        C        0.22222200000000003        0.018519        0.07969364864864865        0.2        
C2        C        0.277778        0.074075        0.07969364864864865        0        
C3        C        0.22222200000000003        0.092592        0.07969364864864865        0        
C4        C        0.277778        0.037037        0.07969364864864865        0        
C_FG        C        0.22222200000000003        0.12963        0.07969364864864865        0.2        
C2        C        0.277778        0.185185        0.07969364864864865        0        
C3        C        0.22222200000000003        0.203703        0.07969364864864865        0        
C4        C        0.277778        0.148148        0.07969364864864865        0        
C_FG        C        0.22222200000000003        0.24074099999999998        0.07969364864864865        0.2        
C2        C        0.277778        0.296297        0.07969364864864865        0        
C3        C        0.22222200000000003        0.314815        0.07969364864864865        0        
C4        C        0.277778        0.259259        0.07969364864864865        0        
C_FG        C        0.22222200000000003        0.351852        0.07969364864864865        0.2        
C2        C        0.277778        0.407408        0.07969364864864865        0        
C3        C        0.22222200000000003        0.42592500000000005        0.07969364864864865        0        
C4        C        0.277778        0.37037        0.07969364864864865        0        
C_FG        C        0.22222200000000003        0.46296300000000007        0.07969364864864865        0.2        
C2        C        0.277778        0.518519        0.07969364864864865        0        
C3        C        0.22222200000000003        0.537037        0.07969364864864865        0        
C4        C        0.277778        0.481481        0.07969364864864865        0        
C_FG        C        0.22222200000000003        0.574075        0.07969364864864865        0.2        
C2        C        0.277778        0.62963        0.07969364864864865        0        
C3        C        0.22222200000000003        0.648148        0.07969364864864865        0        
C4        C        0.277778        0.592592        0.07969364864864865        0        
C1        C        0.333333        0.018519        0.07969364864864865        0        
C2        C        0.388889        0.074075        0.07969364864864865        0        
C3        C        0.333333        0.092592        0.07969364864864865        0        
C4        C        0.388889        0.037037        0.07969364864864865        0        
C1        C        0.333333        0.12963        0.07969364864864865        0        
C2        C        0.388889        0.185185        0.07969364864864865        0        
C3        C        0.333333        0.203703        0.07969364864864865        0        
C4        C        0.388889        0.148148        0.07969364864864865        0        
C1        C        0.333333        0.24074099999999998        0.07969364864864865        0        
C2        C        0.388889        0.296297        0.07969364864864865        0        
C3        C        0.333333        0.314815        0.07969364864864865        0        
C4        C        0.388889        0.259259        0.07969364864864865        0        
C1        C        0.333333        0.351852        0.07969364864864865        0        
C2        C        0.388889        0.407408        0.07969364864864865        0        
C3        C        0.333333        0.42592500000000005        0.07969364864864865        0        
C4        C        0.388889        0.37037        0.07969364864864865        0        
C1        C        0.333333        0.46296300000000007        0.07969364864864865        0        
C2        C        0.388889        0.518519        0.07969364864864865        0        
C3        C        0.333333        0.537037        0.07969364864864865        0        
C4        C        0.388889        0.481481        0.07969364864864865        0        
C1        C        0.333333        0.574075        0.07969364864864865        0        
C2        C        0.388889        0.62963        0.07969364864864865        0        
C3        C        0.333333        0.648148        0.07969364864864865        0        
C4        C        0.388889        0.592592        0.07969364864864865        0        
C1        C        0.44444400000000006        0.018519        0.07969364864864865        0        
C2        C        0.5        0.074075        0.07969364864864865        0        
C3        C        0.44444400000000006        0.092592        0.07969364864864865        0        
C4        C        0.5        0.037037        0.07969364864864865        0        
C1        C        0.44444400000000006        0.12963        0.07969364864864865        0        
C2        C        0.5        0.185185        0.07969364864864865        0        
C3        C        0.44444400000000006        0.203703        0.07969364864864865        0        
C4        C        0.5        0.148148        0.07969364864864865        0        
C1        C        0.44444400000000006        0.24074099999999998        0.07969364864864865        0        
C2        C        0.5        0.296297        0.07969364864864865        0        
C3        C        0.44444400000000006        0.314815        0.07969364864864865        0        
C4        C        0.5        0.259259        0.07969364864864865        0        
C1        C        0.44444400000000006        0.351852        0.07969364864864865        0        
C2        C        0.5        0.407408        0.07969364864864865        0        
C3        C        0.44444400000000006        0.42592500000000005        0.07969364864864865        0        
C4        C        0.5        0.37037        0.07969364864864865        0        
C1        C        0.44444400000000006        0.46296300000000007        0.07969364864864865        0        
C2        C        0.5        0.518519        0.07969364864864865        0        
C3        C        0.44444400000000006        0.537037        0.07969364864864865        0        
C4        C        0.5        0.481481        0.07969364864864865        0        
C1        C        0.44444400000000006        0.574075        0.07969364864864865        0        
C2        C        0.5        0.62963        0.07969364864864865        0        
C3        C        0.44444400000000006        0.648148        0.07969364864864865        0        
C4        C        0.5        0.592592        0.07969364864864865        0        
C1        C        0.555556        0.018519        0.07969364864864865        0        
C2        C        0.611111        0.074075        0.07969364864864865        0        
C3        C        0.555556        0.092592        0.07969364864864865        0        
C4        C        0.611111        0.037037        0.07969364864864865        0        
C1        C        0.555556        0.12963        0.07969364864864865        0        
C2        C        0.611111        0.185185        0.07969364864864865        0        
C3        C        0.555556        0.203703        0.07969364864864865        0        
C4        C        0.611111        0.148148        0.07969364864864865        0        
C1        C        0.555556        0.24074099999999998        0.07969364864864865        0        
C2        C        0.611111        0.296297        0.07969364864864865        0        
C3        C        0.555556        0.314815        0.07969364864864865        0        
C4        C        0.611111        0.259259        0.07969364864864865        0        
C1        C        0.555556        0.351852        0.07969364864864865        0        
C2        C        0.611111        0.407408        0.07969364864864865        0        
C3        C        0.555556        0.42592500000000005        0.07969364864864865        0        
C4        C        0.611111        0.37037        0.07969364864864865        0        
C1        C        0.555556        0.46296300000000007        0.07969364864864865        0        
C2        C        0.611111        0.518519        0.07969364864864865        0        
C3        C        0.555556        0.537037        0.07969364864864865        0        
C4        C        0.611111        0.481481        0.07969364864864865        0        
C1        C        0.555556        0.574075        0.07969364864864865        0        
C2        C        0.611111        0.62963        0.07969364864864865        0        
C3        C        0.555556        0.648148        0.07969364864864865        0        
C4        C        0.611111        0.592592        0.07969364864864865        0        
C1        C        0.666667        0.018519        0.07969364864864865        0        
C2        C        0.722222        0.074075        0.07969364864864865        0        
C3        C        0.666667        0.092592        0.07969364864864865        0        
C4        C        0.722222        0.037037        0.07969364864864865        0        
C1        C        0.666667        0.12963        0.07969364864864865        0        
C2        C        0.722222        0.185185        0.07969364864864865        0        
C3        C        0.666667        0.203703        0.07969364864864865        0        
C4        C        0.722222        0.148148        0.07969364864864865        0        
C1        C        0.666667        0.24074099999999998        0.07969364864864865        0        
C2        C        0.722222        0.296297        0.07969364864864865        0        
C3        C        0.666667        0.314815        0.07969364864864865        0        
C4        C        0.722222        0.259259        0.07969364864864865        0        
C1        C        0.666667        0.351852        0.07969364864864865        0        
C2        C        0.722222        0.407408        0.07969364864864865        0        
C3        C        0.666667        0.42592500000000005        0.07969364864864865        0        
C4        C        0.722222        0.37037        0.07969364864864865        0        
C1        C        0.666667        0.46296300000000007        0.07969364864864865        0        
C2        C        0.722222        0.518519        0.07969364864864865        0        
C3        C        0.666667        0.537037        0.07969364864864865        0        
C4        C        0.722222        0.481481        0.07969364864864865        0        
C1        C        0.666667        0.574075        0.07969364864864865        0        
C2        C        0.722222        0.62963        0.07969364864864865        0        
C3        C        0.666667        0.648148        0.07969364864864865        0        
C4        C        0.722222        0.592592        0.07969364864864865        0        
C1        C        0.777778        0.018519        0.07969364864864865        0        
C2        C        0.833333        0.074075        0.07969364864864865        0        
C3        C        0.777778        0.092592        0.07969364864864865        0        
C4        C        0.833333        0.037037        0.07969364864864865        0        
C1        C        0.777778        0.12963        0.07969364864864865        0        
C2        C        0.833333        0.185185        0.07969364864864865        0        
C3        C        0.777778        0.203703        0.07969364864864865        0        
C4        C        0.833333        0.148148        0.07969364864864865        0        
C1        C        0.777778        0.24074099999999998        0.07969364864864865        0        
C2        C        0.833333        0.296297        0.07969364864864865        0        
C3        C        0.777778        0.314815        0.07969364864864865        0        
C4        C        0.833333        0.259259        0.07969364864864865        0        
C1        C        0.777778        0.351852        0.07969364864864865        0        
C2        C        0.833333        0.407408        0.07969364864864865        0        
C3        C        0.777778        0.42592500000000005        0.07969364864864865        0        
C4        C        0.833333        0.37037        0.07969364864864865        0        
C1        C        0.777778        0.46296300000000007        0.07969364864864865        0        
C2        C        0.833333        0.518519        0.07969364864864865        0        
C3        C        0.777778        0.537037        0.07969364864864865        0        
C4        C        0.833333        0.481481        0.07969364864864865        0        
C1        C        0.777778        0.574075        0.07969364864864865        0        
C2        C        0.833333        0.62963        0.07969364864864865        0        
C3        C        0.777778        0.648148        0.07969364864864865        0        
C4        C        0.833333        0.592592        0.07969364864864865        0        
C1        C        0.888889        0.018519        0.07969364864864865        0        
C2        C        0.944444        0.074075        0.07969364864864865        0        
C3        C        0.888889        0.092592        0.07969364864864865        0        
C4        C        0.944444        0.037037        0.07969364864864865        0        
C1        C        0.888889        0.12963        0.07969364864864865        0        
C2        C        0.944444        0.185185        0.07969364864864865        0        
C3        C        0.888889        0.203703        0.07969364864864865        0        
C4        C        0.944444        0.148148        0.07969364864864865        0        
C1        C        0.888889        0.24074099999999998        0.07969364864864865        0        
C2        C        0.944444        0.296297        0.07969364864864865        0        
C3        C        0.888889        0.314815        0.07969364864864865        0        
C4        C        0.944444        0.259259        0.07969364864864865        0        
C1        C        0.888889        0.351852        0.07969364864864865        0        
C2        C        0.944444        0.407408        0.07969364864864865        0        
C3        C        0.888889        0.42592500000000005        0.07969364864864865        0        
C4        C        0.944444        0.37037        0.07969364864864865        0        
C1        C        0.888889        0.46296300000000007        0.07969364864864865        0        
C2        C        0.944444        0.518519        0.07969364864864865        0        
C3        C        0.888889        0.537037        0.07969364864864865        0        
C4        C        0.944444        0.481481        0.07969364864864865        0        
C1        C        0.888889        0.574075        0.07969364864864865        0        
C2        C        0.944444        0.62963        0.07969364864864865        0        
C3        C        0.888889        0.648148        0.07969364864864865        0        
C4        C        0.944444        0.592592        0.07969364864864865        0        
C_FG        C        0.0        0.685186        0.07969364864864865        0.2        
C1        C        0.11111100000000002        0.685186        0.07969364864864865        0        
C_FG        C        0.22222200000000003        0.685186        0.07969364864864865        0.2        
C1        C        0.333333        0.685186        0.07969364864864865        0        
C1        C        0.44444400000000006        0.685186        0.07969364864864865        0        
C1        C        0.555556        0.685186        0.07969364864864865        0        
C1        C        0.666667        0.685186        0.07969364864864865        0        
C1        C        0.777778        0.685186        0.07969364864864865        0        
C1        C        0.888889        0.685186        0.07969364864864865        0        
C2        C        0.055556        0.740741        0.07969364864864865        0        
C2        C        0.166667        0.740741        0.07969364864864865        0        
C2        C        0.277778        0.740741        0.07969364864864865        0        
C2        C        0.388889        0.740741        0.07969364864864865        0        
C2        C        0.5        0.740741        0.07969364864864865        0        
C2        C        0.611111        0.740741        0.07969364864864865        0        
C2        C        0.722222        0.740741        0.07969364864864865        0        
C2        C        0.833333        0.740741        0.07969364864864865        0        
C2        C        0.944444        0.740741        0.07969364864864865        0        
C3        C        0.0        0.759259        0.07969364864864865        0        
C3        C        0.11111100000000002        0.759259        0.07969364864864865        0        
C3        C        0.22222200000000003        0.759259        0.07969364864864865        0        
C3        C        0.333333        0.759259        0.07969364864864865        0        
C3        C        0.44444400000000006        0.759259        0.07969364864864865        0        
C3        C        0.555556        0.759259        0.07969364864864865        0        
C3        C        0.666667        0.759259        0.07969364864864865        0        
C3        C        0.777778        0.759259        0.07969364864864865        0        
C3        C        0.888889        0.759259        0.07969364864864865        0        
C4        C        0.055556        0.703703        0.07969364864864865        0        
C4        C        0.166667        0.703703        0.07969364864864865        0        
C4        C        0.277778        0.703703        0.07969364864864865        0        
C4        C        0.388889        0.703703        0.07969364864864865        0        
C4        C        0.5        0.703703        0.07969364864864865        0        
C4        C        0.611111        0.703703        0.07969364864864865        0        
C4        C        0.722222        0.703703        0.07969364864864865        0        
C4        C        0.833333        0.703703        0.07969364864864865        0        
C4        C        0.944444        0.703703        0.07969364864864865        0        
C_FG        C        0.0        0.796297        0.07969364864864865        0.2        
C1        C        0.11111100000000002        0.796297        0.07969364864864865        0        
C_FG        C        0.22222200000000003        0.796297        0.07969364864864865        0.2        
C1        C        0.333333        0.796297        0.07969364864864865        0        
C1        C        0.44444400000000006        0.796297        0.07969364864864865        0        
C1        C        0.555556        0.796297        0.07969364864864865        0        
C1        C        0.666667        0.796297        0.07969364864864865        0        
C1        C        0.777778        0.796297        0.07969364864864865        0        
C1        C        0.888889        0.796297        0.07969364864864865        0        
C2        C        0.055556        0.851852        0.07969364864864865        0        
C2        C        0.166667        0.851852        0.07969364864864865        0        
C2        C        0.277778        0.851852        0.07969364864864865        0        
C2        C        0.388889        0.851852        0.07969364864864865        0        
C2        C        0.5        0.851852        0.07969364864864865        0        
C2        C        0.611111        0.851852        0.07969364864864865        0        
C2        C        0.722222        0.851852        0.07969364864864865        0        
C2        C        0.833333        0.851852        0.07969364864864865        0        
C2        C        0.944444        0.851852        0.07969364864864865        0        
C3        C        0.0        0.87037        0.07969364864864865        0        
C3        C        0.11111100000000002        0.87037        0.07969364864864865        0        
C3        C        0.22222200000000003        0.87037        0.07969364864864865        0        
C3        C        0.333333        0.87037        0.07969364864864865        0        
C3        C        0.44444400000000006        0.87037        0.07969364864864865        0        
C3        C        0.555556        0.87037        0.07969364864864865        0        
C3        C        0.666667        0.87037        0.07969364864864865        0        
C3        C        0.777778        0.87037        0.07969364864864865        0        
C3        C        0.888889        0.87037        0.07969364864864865        0        
C4        C        0.055556        0.814814        0.07969364864864865        0        
C4        C        0.166667        0.814814        0.07969364864864865        0        
C4        C        0.277778        0.814814        0.07969364864864865        0        
C4        C        0.388889        0.814814        0.07969364864864865        0        
C4        C        0.5        0.814814        0.07969364864864865        0        
C4        C        0.611111        0.814814        0.07969364864864865        0        
C4        C        0.722222        0.814814        0.07969364864864865        0        
C4        C        0.833333        0.814814        0.07969364864864865        0        
C4        C        0.944444        0.814814        0.07969364864864865        0        
C_FG        C        0.0        0.907408        0.07969364864864865        0.2        
C1        C        0.11111100000000002        0.907408        0.07969364864864865        0        
C_FG        C        0.22222200000000003        0.907408        0.07969364864864865        0.2        
C1        C        0.333333        0.907408        0.07969364864864865        0        
C1        C        0.44444400000000006        0.907408        0.07969364864864865        0        
C1        C        0.555556        0.907408        0.07969364864864865        0        
C1        C        0.666667        0.907408        0.07969364864864865        0        
C1        C        0.777778        0.907408        0.07969364864864865        0        
C1        C        0.888889        0.907408        0.07969364864864865        0        
C2        C        0.055556        0.962963        0.07969364864864865        0        
C2        C        0.166667        0.962963        0.07969364864864865        0        
C2        C        0.277778        0.962963        0.07969364864864865        0        
C2        C        0.388889        0.962963        0.07969364864864865        0        
C2        C        0.5        0.962963        0.07969364864864865        0        
C2        C        0.611111        0.962963        0.07969364864864865        0        
C2        C        0.722222        0.962963        0.07969364864864865        0        
C2        C        0.833333        0.962963        0.07969364864864865        0        
C2        C        0.944444        0.962963        0.07969364864864865        0        
C3        C        0.0        0.9814809999999999        0.07969364864864865        0        
C3        C        0.11111100000000002        0.9814809999999999        0.07969364864864865        0        
C3        C        0.22222200000000003        0.9814809999999999        0.07969364864864865        0        
C3        C        0.333333        0.9814809999999999        0.07969364864864865        0        
C3        C        0.44444400000000006        0.9814809999999999        0.07969364864864865        0        
C3        C        0.555556        0.9814809999999999        0.07969364864864865        0        
C3        C        0.666667        0.9814809999999999        0.07969364864864865        0        
C3        C        0.777778        0.9814809999999999        0.07969364864864865        0        
C3        C        0.888889        0.9814809999999999        0.07969364864864865        0        
C4        C        0.055556        0.925925        0.07969364864864865        0        
C4        C        0.166667        0.925925        0.07969364864864865        0        
C4        C        0.277778        0.925925        0.07969364864864865        0        
C4        C        0.388889        0.925925        0.07969364864864865        0        
C4        C        0.5        0.925925        0.07969364864864865        0        
C4        C        0.611111        0.925925        0.07969364864864865        0        
C4        C        0.722222        0.925925        0.07969364864864865        0        
C4        C        0.833333        0.925925        0.07969364864864865        0        
C4        C        0.944444        0.925925        0.07969364864864865        0        
C1        C        0.0        0.018519        0.23059464864864865        0        
C2        C        0.055556        0.074075        0.23059464864864865        0        
C3        C        0.0        0.092592        0.23059464864864865        0        
C4        C        0.055556        0.037037        0.23059464864864865        0        
C1        C        0.0        0.12963        0.23059464864864865        0        
C2        C        0.055556        0.185185        0.23059464864864865        0        
C3        C        0.0        0.203703        0.23059464864864865        0        
C4        C        0.055556        0.148148        0.23059464864864865        0        
C1        C        0.0        0.24074099999999998        0.23059464864864865        0        
C2        C        0.055556        0.296297        0.23059464864864865        0        
C3        C        0.0        0.314815        0.23059464864864865        0        
C4        C        0.055556        0.259259        0.23059464864864865        0        
C1        C        0.0        0.351852        0.23059464864864865        0        
C2        C        0.055556        0.407408        0.23059464864864865        0        
C3        C        0.0        0.42592500000000005        0.23059464864864865        0        
C4        C        0.055556        0.37037        0.23059464864864865        0        
C1        C        0.0        0.46296300000000007        0.23059464864864865        0        
C2        C        0.055556        0.518519        0.23059464864864865        0        
C3        C        0.0        0.537037        0.23059464864864865        0        
C4        C        0.055556        0.481481        0.23059464864864865        0        
C1        C        0.0        0.574075        0.23059464864864865        0        
C2        C        0.055556        0.62963        0.23059464864864865        0        
C3        C        0.0        0.648148        0.23059464864864865        0        
C4        C        0.055556        0.592592        0.23059464864864865        0        
C1        C        0.11111100000000002        0.018519        0.23059464864864865        0        
C2        C        0.166667        0.074075        0.23059464864864865        0        
C3        C        0.11111100000000002        0.092592        0.23059464864864865        0        
C4        C        0.166667        0.037037        0.23059464864864865        0        
C1        C        0.11111100000000002        0.12963        0.23059464864864865        0        
C2        C        0.166667        0.185185        0.23059464864864865        0        
C3        C        0.11111100000000002        0.203703        0.23059464864864865        0        
C4        C        0.166667        0.148148        0.23059464864864865        0        
C1        C        0.11111100000000002        0.24074099999999998        0.23059464864864865        0        
C2        C        0.166667        0.296297        0.23059464864864865        0        
C3        C        0.11111100000000002        0.314815        0.23059464864864865        0        
C4        C        0.166667        0.259259        0.23059464864864865        0        
C1        C        0.11111100000000002        0.351852        0.23059464864864865        0        
C2        C        0.166667        0.407408        0.23059464864864865        0        
C3        C        0.11111100000000002        0.42592500000000005        0.23059464864864865        0        
C4        C        0.166667        0.37037        0.23059464864864865        0        
C1        C        0.11111100000000002        0.46296300000000007        0.23059464864864865        0        
C2        C        0.166667        0.518519        0.23059464864864865        0        
C3        C        0.11111100000000002        0.537037        0.23059464864864865        0        
C4        C        0.166667        0.481481        0.23059464864864865        0        
C1        C        0.11111100000000002        0.574075        0.23059464864864865        0        
C2        C        0.166667        0.62963        0.23059464864864865        0        
C3        C        0.11111100000000002        0.648148        0.23059464864864865        0        
C4        C        0.166667        0.592592        0.23059464864864865        0        
C1        C        0.22222200000000003        0.018519        0.23059464864864865        0        
C2        C        0.277778        0.074075        0.23059464864864865        0        
C3        C        0.22222200000000003        0.092592        0.23059464864864865        0        
C4        C        0.277778        0.037037        0.23059464864864865        0        
C1        C        0.22222200000000003        0.12963        0.23059464864864865        0        
C2        C        0.277778        0.185185        0.23059464864864865        0        
C3        C        0.22222200000000003        0.203703        0.23059464864864865        0        
C4        C        0.277778        0.148148        0.23059464864864865        0        
C1        C        0.22222200000000003        0.24074099999999998        0.23059464864864865        0        
C2        C        0.277778        0.296297        0.23059464864864865        0        
C3        C        0.22222200000000003        0.314815        0.23059464864864865        0        
C4        C        0.277778        0.259259        0.23059464864864865        0        
C1        C        0.22222200000000003        0.351852        0.23059464864864865        0        
C2        C        0.277778        0.407408        0.23059464864864865        0        
C3        C        0.22222200000000003        0.42592500000000005        0.23059464864864865        0        
C4        C        0.277778        0.37037        0.23059464864864865        0        
C1        C        0.22222200000000003        0.46296300000000007        0.23059464864864865        0        
C2        C        0.277778        0.518519        0.23059464864864865        0        
C3        C        0.22222200000000003        0.537037        0.23059464864864865        0        
C4        C        0.277778        0.481481        0.23059464864864865        0        
C1        C        0.22222200000000003        0.574075        0.23059464864864865        0        
C2        C        0.277778        0.62963        0.23059464864864865        0        
C3        C        0.22222200000000003        0.648148        0.23059464864864865        0        
C4        C        0.277778        0.592592        0.23059464864864865        0        
C1        C        0.333333        0.018519        0.23059464864864865        0        
C2        C        0.388889        0.074075        0.23059464864864865        0        
C3        C        0.333333        0.092592        0.23059464864864865        0        
C4        C        0.388889        0.037037        0.23059464864864865        0        
C1        C        0.333333        0.12963        0.23059464864864865        0        
C2        C        0.388889        0.185185        0.23059464864864865        0        
C3        C        0.333333        0.203703        0.23059464864864865        0        
C4        C        0.388889        0.148148        0.23059464864864865        0        
C1        C        0.333333        0.24074099999999998        0.23059464864864865        0        
C2        C        0.388889        0.296297        0.23059464864864865        0        
C3        C        0.333333        0.314815        0.23059464864864865        0        
C4        C        0.388889        0.259259        0.23059464864864865        0        
C1        C        0.333333        0.351852        0.23059464864864865        0        
C2        C        0.388889        0.407408        0.23059464864864865        0        
C3        C        0.333333        0.42592500000000005        0.23059464864864865        0        
C4        C        0.388889        0.37037        0.23059464864864865        0        
C1        C        0.333333        0.46296300000000007        0.23059464864864865        0        
C2        C        0.388889        0.518519        0.23059464864864865        0        
C3        C        0.333333        0.537037        0.23059464864864865        0        
C4        C        0.388889        0.481481        0.23059464864864865        0        
C1        C        0.333333        0.574075        0.23059464864864865        0        
C2        C        0.388889        0.62963        0.23059464864864865        0        
C3        C        0.333333        0.648148        0.23059464864864865        0        
C4        C        0.388889        0.592592        0.23059464864864865        0        
C1        C        0.44444400000000006        0.018519        0.23059464864864865        0        
C2        C        0.5        0.074075        0.23059464864864865        0        
C3        C        0.44444400000000006        0.092592        0.23059464864864865        0        
C4        C        0.5        0.037037        0.23059464864864865        0        
C1        C        0.44444400000000006        0.12963        0.23059464864864865        0        
C2        C        0.5        0.185185        0.23059464864864865        0        
C3        C        0.44444400000000006        0.203703        0.23059464864864865        0        
C4        C        0.5        0.148148        0.23059464864864865        0        
C1        C        0.44444400000000006        0.24074099999999998        0.23059464864864865        0        
C2        C        0.5        0.296297        0.23059464864864865        0        
C3        C        0.44444400000000006        0.314815        0.23059464864864865        0        
C4        C        0.5        0.259259        0.23059464864864865        0        
C1        C        0.44444400000000006        0.351852        0.23059464864864865        0        
C2        C        0.5        0.407408        0.23059464864864865        0        
C3        C        0.44444400000000006        0.42592500000000005        0.23059464864864865        0        
C4        C        0.5        0.37037        0.23059464864864865        0        
C1        C        0.44444400000000006        0.46296300000000007        0.23059464864864865        0        
C2        C        0.5        0.518519        0.23059464864864865        0        
C3        C        0.44444400000000006        0.537037        0.23059464864864865        0        
C4        C        0.5        0.481481        0.23059464864864865        0        
C1        C        0.44444400000000006        0.574075        0.23059464864864865        0        
C2        C        0.5        0.62963        0.23059464864864865        0        
C3        C        0.44444400000000006        0.648148        0.23059464864864865        0        
C4        C        0.5        0.592592        0.23059464864864865        0        
C1        C        0.555556        0.018519        0.23059464864864865        0        
C2        C        0.611111        0.074075        0.23059464864864865        0        
C3        C        0.555556        0.092592        0.23059464864864865        0        
C4        C        0.611111        0.037037        0.23059464864864865        0        
C1        C        0.555556        0.12963        0.23059464864864865        0        
C2        C        0.611111        0.185185        0.23059464864864865        0        
C3        C        0.555556        0.203703        0.23059464864864865        0        
C4        C        0.611111        0.148148        0.23059464864864865        0        
C1        C        0.555556        0.24074099999999998        0.23059464864864865        0        
C2        C        0.611111        0.296297        0.23059464864864865        0        
C3        C        0.555556        0.314815        0.23059464864864865        0        
C4        C        0.611111        0.259259        0.23059464864864865        0        
C1        C        0.555556        0.351852        0.23059464864864865        0        
C2        C        0.611111        0.407408        0.23059464864864865        0        
C3        C        0.555556        0.42592500000000005        0.23059464864864865        0        
C4        C        0.611111        0.37037        0.23059464864864865        0        
C1        C        0.555556        0.46296300000000007        0.23059464864864865        0        
C2        C        0.611111        0.518519        0.23059464864864865        0        
C3        C        0.555556        0.537037        0.23059464864864865        0        
C4        C        0.611111        0.481481        0.23059464864864865        0        
C1        C        0.555556        0.574075        0.23059464864864865        0        
C2        C        0.611111        0.62963        0.23059464864864865        0        
C3        C        0.555556        0.648148        0.23059464864864865        0        
C4        C        0.611111        0.592592        0.23059464864864865        0        
C1        C        0.666667        0.018519        0.23059464864864865        0        
C2        C        0.722222        0.074075        0.23059464864864865        0        
C3        C        0.666667        0.092592        0.23059464864864865        0        
C4        C        0.722222        0.037037        0.23059464864864865        0        
C1        C        0.666667        0.12963        0.23059464864864865        0        
C2        C        0.722222        0.185185        0.23059464864864865        0        
C3        C        0.666667        0.203703        0.23059464864864865        0        
C4        C        0.722222        0.148148        0.23059464864864865        0        
C1        C        0.666667        0.24074099999999998        0.23059464864864865        0        
C2        C        0.722222        0.296297        0.23059464864864865        0        
C3        C        0.666667        0.314815        0.23059464864864865        0        
C4        C        0.722222        0.259259        0.23059464864864865        0        
C1        C        0.666667        0.351852        0.23059464864864865        0        
C2        C        0.722222        0.407408        0.23059464864864865        0        
C3        C        0.666667        0.42592500000000005        0.23059464864864865        0        
C4        C        0.722222        0.37037        0.23059464864864865        0        
C1        C        0.666667        0.46296300000000007        0.23059464864864865        0        
C2        C        0.722222        0.518519        0.23059464864864865        0        
C3        C        0.666667        0.537037        0.23059464864864865        0        
C4        C        0.722222        0.481481        0.23059464864864865        0        
C1        C        0.666667        0.574075        0.23059464864864865        0        
C2        C        0.722222        0.62963        0.23059464864864865        0        
C3        C        0.666667        0.648148        0.23059464864864865        0        
C4        C        0.722222        0.592592        0.23059464864864865        0        
C1        C        0.777778        0.018519        0.23059464864864865        0        
C2        C        0.833333        0.074075        0.23059464864864865        0        
C3        C        0.777778        0.092592        0.23059464864864865        0        
C4        C        0.833333        0.037037        0.23059464864864865        0        
C1        C        0.777778        0.12963        0.23059464864864865        0        
C2        C        0.833333        0.185185        0.23059464864864865        0        
C3        C        0.777778        0.203703        0.23059464864864865        0        
C4        C        0.833333        0.148148        0.23059464864864865        0        
C1        C        0.777778        0.24074099999999998        0.23059464864864865        0        
C2        C        0.833333        0.296297        0.23059464864864865        0        
C3        C        0.777778        0.314815        0.23059464864864865        0        
C4        C        0.833333        0.259259        0.23059464864864865        0        
C1        C        0.777778        0.351852        0.23059464864864865        0        
C2        C        0.833333        0.407408        0.23059464864864865        0        
C3        C        0.777778        0.42592500000000005        0.23059464864864865        0        
C4        C        0.833333        0.37037        0.23059464864864865        0        
C1        C        0.777778        0.46296300000000007        0.23059464864864865        0        
C2        C        0.833333        0.518519        0.23059464864864865        0        
C3        C        0.777778        0.537037        0.23059464864864865        0        
C4        C        0.833333        0.481481        0.23059464864864865        0        
C1        C        0.777778        0.574075        0.23059464864864865        0        
C2        C        0.833333        0.62963        0.23059464864864865        0        
C3        C        0.777778        0.648148        0.23059464864864865        0        
C4        C        0.833333        0.592592        0.23059464864864865        0        
C1        C        0.888889        0.018519        0.23059464864864865        0        
C2        C        0.944444        0.074075        0.23059464864864865        0        
C3        C        0.888889        0.092592        0.23059464864864865        0        
C4        C        0.944444        0.037037        0.23059464864864865        0        
C1        C        0.888889        0.12963        0.23059464864864865        0        
C2        C        0.944444        0.185185        0.23059464864864865        0        
C3        C        0.888889        0.203703        0.23059464864864865        0        
C4        C        0.944444        0.148148        0.23059464864864865        0        
C1        C        0.888889        0.24074099999999998        0.23059464864864865        0        
C2        C        0.944444        0.296297        0.23059464864864865        0        
C3        C        0.888889        0.314815        0.23059464864864865        0        
C4        C        0.944444        0.259259        0.23059464864864865        0        
C1        C        0.888889        0.351852        0.23059464864864865        0        
C2        C        0.944444        0.407408        0.23059464864864865        0        
C3        C        0.888889        0.42592500000000005        0.23059464864864865        0        
C4        C        0.944444        0.37037        0.23059464864864865        0        
C1        C        0.888889        0.46296300000000007        0.23059464864864865        0        
C2        C        0.944444        0.518519        0.23059464864864865        0        
C3        C        0.888889        0.537037        0.23059464864864865        0        
C4        C        0.944444        0.481481        0.23059464864864865        0        
C1        C        0.888889        0.574075        0.23059464864864865        0        
C2        C        0.944444        0.62963        0.23059464864864865        0        
C3        C        0.888889        0.648148        0.23059464864864865        0        
C4        C        0.944444        0.592592        0.23059464864864865        0        
C1        C        0.0        0.685186        0.23059464864864865        0        
C1        C        0.11111100000000002        0.685186        0.23059464864864865        0        
C1        C        0.22222200000000003        0.685186        0.23059464864864865        0        
C1        C        0.333333        0.685186        0.23059464864864865        0        
C1        C        0.44444400000000006        0.685186        0.23059464864864865        0        
C1        C        0.555556        0.685186        0.23059464864864865        0        
C1        C        0.666667        0.685186        0.23059464864864865        0        
C1        C        0.777778        0.685186        0.23059464864864865        0        
C1        C        0.888889        0.685186        0.23059464864864865        0        
C2        C        0.055556        0.740741        0.23059464864864865        0        
C2        C        0.166667        0.740741        0.23059464864864865        0        
C2        C        0.277778        0.740741        0.23059464864864865        0        
C2        C        0.388889        0.740741        0.23059464864864865        0        
C2        C        0.5        0.740741        0.23059464864864865        0        
C2        C        0.611111        0.740741        0.23059464864864865        0        
C2        C        0.722222        0.740741        0.23059464864864865        0        
C2        C        0.833333        0.740741        0.23059464864864865        0        
C2        C        0.944444        0.740741        0.23059464864864865        0        
C3        C        0.0        0.759259        0.23059464864864865        0        
C3        C        0.11111100000000002        0.759259        0.23059464864864865        0        
C3        C        0.22222200000000003        0.759259        0.23059464864864865        0        
C3        C        0.333333        0.759259        0.23059464864864865        0        
C3        C        0.44444400000000006        0.759259        0.23059464864864865        0        
C3        C        0.555556        0.759259        0.23059464864864865        0        
C3        C        0.666667        0.759259        0.23059464864864865        0        
C3        C        0.777778        0.759259        0.23059464864864865        0        
C3        C        0.888889        0.759259        0.23059464864864865        0        
C4        C        0.055556        0.703703        0.23059464864864865        0        
C4        C        0.166667        0.703703        0.23059464864864865        0        
C4        C        0.277778        0.703703        0.23059464864864865        0        
C4        C        0.388889        0.703703        0.23059464864864865        0        
C4        C        0.5        0.703703        0.23059464864864865        0        
C4        C        0.611111        0.703703        0.23059464864864865        0        
C4        C        0.722222        0.703703        0.23059464864864865        0        
C4        C        0.833333        0.703703        0.23059464864864865        0        
C4        C        0.944444        0.703703        0.23059464864864865        0        
C1        C        0.0        0.796297        0.23059464864864865        0        
C1        C        0.11111100000000002        0.796297        0.23059464864864865        0        
C1        C        0.22222200000000003        0.796297        0.23059464864864865        0        
C1        C        0.333333        0.796297        0.23059464864864865        0        
C1        C        0.44444400000000006        0.796297        0.23059464864864865        0        
C1        C        0.555556        0.796297        0.23059464864864865        0        
C1        C        0.666667        0.796297        0.23059464864864865        0        
C1        C        0.777778        0.796297        0.23059464864864865        0        
C1        C        0.888889        0.796297        0.23059464864864865        0        
C2        C        0.055556        0.851852        0.23059464864864865        0        
C2        C        0.166667        0.851852        0.23059464864864865        0        
C2        C        0.277778        0.851852        0.23059464864864865        0        
C2        C        0.388889        0.851852        0.23059464864864865        0        
C2        C        0.5        0.851852        0.23059464864864865        0        
C2        C        0.611111        0.851852        0.23059464864864865        0        
C2        C        0.722222        0.851852        0.23059464864864865        0        
C2        C        0.833333        0.851852        0.23059464864864865        0        
C2        C        0.944444        0.851852        0.23059464864864865        0        
C3        C        0.0        0.87037        0.23059464864864865        0        
C3        C        0.11111100000000002        0.87037        0.23059464864864865        0        
C3        C        0.22222200000000003        0.87037        0.23059464864864865        0        
C3        C        0.333333        0.87037        0.23059464864864865        0        
C3        C        0.44444400000000006        0.87037        0.23059464864864865        0        
C3        C        0.555556        0.87037        0.23059464864864865        0        
C3        C        0.666667        0.87037        0.23059464864864865        0        
C3        C        0.777778        0.87037        0.23059464864864865        0        
C3        C        0.888889        0.87037        0.23059464864864865        0        
C4        C        0.055556        0.814814        0.23059464864864865        0        
C4        C        0.166667        0.814814        0.23059464864864865        0        
C4        C        0.277778        0.814814        0.23059464864864865        0        
C4        C        0.388889        0.814814        0.23059464864864865        0        
C4        C        0.5        0.814814        0.23059464864864865        0        
C4        C        0.611111        0.814814        0.23059464864864865        0        
C4        C        0.722222        0.814814        0.23059464864864865        0        
C4        C        0.833333        0.814814        0.23059464864864865        0        
C4        C        0.944444        0.814814        0.23059464864864865        0        
C1        C        0.0        0.907408        0.23059464864864865        0        
C1        C        0.11111100000000002        0.907408        0.23059464864864865        0        
C1        C        0.22222200000000003        0.907408        0.23059464864864865        0        
C1        C        0.333333        0.907408        0.23059464864864865        0        
C1        C        0.44444400000000006        0.907408        0.23059464864864865        0        
C1        C        0.555556        0.907408        0.23059464864864865        0        
C1        C        0.666667        0.907408        0.23059464864864865        0        
C1        C        0.777778        0.907408        0.23059464864864865        0        
C1        C        0.888889        0.907408        0.23059464864864865        0        
C2        C        0.055556        0.962963        0.23059464864864865        0        
C2        C        0.166667        0.962963        0.23059464864864865        0        
C2        C        0.277778        0.962963        0.23059464864864865        0        
C2        C        0.388889        0.962963        0.23059464864864865        0        
C2        C        0.5        0.962963        0.23059464864864865        0        
C2        C        0.611111        0.962963        0.23059464864864865        0        
C2        C        0.722222        0.962963        0.23059464864864865        0        
C2        C        0.833333        0.962963        0.23059464864864865        0        
C2        C        0.944444        0.962963        0.23059464864864865        0        
C3        C        0.0        0.9814809999999999        0.23059464864864865        0        
C3        C        0.11111100000000002        0.9814809999999999        0.23059464864864865        0        
C3        C        0.22222200000000003        0.9814809999999999        0.23059464864864865        0        
C3        C        0.333333        0.9814809999999999        0.23059464864864865        0        
C3        C        0.44444400000000006        0.9814809999999999        0.23059464864864865        0        
C3        C        0.555556        0.9814809999999999        0.23059464864864865        0        
C3        C        0.666667        0.9814809999999999        0.23059464864864865        0        
C3        C        0.777778        0.9814809999999999        0.23059464864864865        0        
C3        C        0.888889        0.9814809999999999        0.23059464864864865        0        
C4        C        0.055556        0.925925        0.23059464864864865        0        
C4        C        0.166667        0.925925        0.23059464864864865        0        
C4        C        0.277778        0.925925        0.23059464864864865        0        
C4        C        0.388889        0.925925        0.23059464864864865        0        
C4        C        0.5        0.925925        0.23059464864864865        0        
C4        C        0.611111        0.925925        0.23059464864864865        0        
C4        C        0.722222        0.925925        0.23059464864864865        0        
C4        C        0.833333        0.925925        0.23059464864864865        0        
C4        C        0.944444        0.925925        0.23059464864864865        0        
C_FG        C        0.0        0.018519        0.38149564864864866        0.2        
C2        C        0.055556        0.074075        0.38149564864864866        0        
C3        C        0.0        0.092592        0.38149564864864866        0        
C4        C        0.055556        0.037037        0.38149564864864866        0        
C_FG        C        0.0        0.12963        0.38149564864864866        0.2        
C2        C        0.055556        0.185185        0.38149564864864866        0        
C3        C        0.0        0.203703        0.38149564864864866        0        
C4        C        0.055556        0.148148        0.38149564864864866        0        
C_FG        C        0.0        0.24074099999999998        0.38149564864864866        0.2        
C2        C        0.055556        0.296297        0.38149564864864866        0        
C3        C        0.0        0.314815        0.38149564864864866        0        
C4        C        0.055556        0.259259        0.38149564864864866        0        
C_FG        C        0.0        0.351852        0.38149564864864866        0.2        
C2        C        0.055556        0.407408        0.38149564864864866        0        
C3        C        0.0        0.42592500000000005        0.38149564864864866        0        
C4        C        0.055556        0.37037        0.38149564864864866        0        
C_FG        C        0.0        0.46296300000000007        0.38149564864864866        0.2        
C2        C        0.055556        0.518519        0.38149564864864866        0        
C3        C        0.0        0.537037        0.38149564864864866        0        
C4        C        0.055556        0.481481        0.38149564864864866        0        
C_FG        C        0.0        0.574075        0.38149564864864866        0.2        
C2        C        0.055556        0.62963        0.38149564864864866        0        
C3        C        0.0        0.648148        0.38149564864864866        0        
C4        C        0.055556        0.592592        0.38149564864864866        0        
C1        C        0.11111100000000002        0.018519        0.38149564864864866        0        
C2        C        0.166667        0.074075        0.38149564864864866        0        
C3        C        0.11111100000000002        0.092592        0.38149564864864866        0        
C4        C        0.166667        0.037037        0.38149564864864866        0        
C1        C        0.11111100000000002        0.12963        0.38149564864864866        0        
C2        C        0.166667        0.185185        0.38149564864864866        0        
C3        C        0.11111100000000002        0.203703        0.38149564864864866        0        
C4        C        0.166667        0.148148        0.38149564864864866        0        
C1        C        0.11111100000000002        0.24074099999999998        0.38149564864864866        0        
C2        C        0.166667        0.296297        0.38149564864864866        0        
C3        C        0.11111100000000002        0.314815        0.38149564864864866        0        
C4        C        0.166667        0.259259        0.38149564864864866        0        
C1        C        0.11111100000000002        0.351852        0.38149564864864866        0        
C2        C        0.166667        0.407408        0.38149564864864866        0        
C3        C        0.11111100000000002        0.42592500000000005        0.38149564864864866        0        
C4        C        0.166667        0.37037        0.38149564864864866        0        
C1        C        0.11111100000000002        0.46296300000000007        0.38149564864864866        0        
C2        C        0.166667        0.518519        0.38149564864864866        0        
C3        C        0.11111100000000002        0.537037        0.38149564864864866        0        
C4        C        0.166667        0.481481        0.38149564864864866        0        
C1        C        0.11111100000000002        0.574075        0.38149564864864866        0        
C2        C        0.166667        0.62963        0.38149564864864866        0        
C3        C        0.11111100000000002        0.648148        0.38149564864864866        0        
C4        C        0.166667        0.592592        0.38149564864864866        0        
C_FG        C        0.22222200000000003        0.018519        0.38149564864864866        0.2        
C2        C        0.277778        0.074075        0.38149564864864866        0        
C3        C        0.22222200000000003        0.092592        0.38149564864864866        0        
C4        C        0.277778        0.037037        0.38149564864864866        0        
C_FG        C        0.22222200000000003        0.12963        0.38149564864864866        0.2        
C2        C        0.277778        0.185185        0.38149564864864866        0        
C3        C        0.22222200000000003        0.203703        0.38149564864864866        0        
C4        C        0.277778        0.148148        0.38149564864864866        0        
C_FG        C        0.22222200000000003        0.24074099999999998        0.38149564864864866        0.2        
C2        C        0.277778        0.296297        0.38149564864864866        0        
C3        C        0.22222200000000003        0.314815        0.38149564864864866        0        
C4        C        0.277778        0.259259        0.38149564864864866        0        
C_FG        C        0.22222200000000003        0.351852        0.38149564864864866        0.2        
C2        C        0.277778        0.407408        0.38149564864864866        0        
C3        C        0.22222200000000003        0.42592500000000005        0.38149564864864866        0        
C4        C        0.277778        0.37037        0.38149564864864866        0        
C_FG        C        0.22222200000000003        0.46296300000000007        0.38149564864864866        0.2        
C2        C        0.277778        0.518519        0.38149564864864866        0        
C3        C        0.22222200000000003        0.537037        0.38149564864864866        0        
C4        C        0.277778        0.481481        0.38149564864864866        0        
C_FG        C        0.22222200000000003        0.574075        0.38149564864864866        0.2        
C2        C        0.277778        0.62963        0.38149564864864866        0        
C3        C        0.22222200000000003        0.648148        0.38149564864864866        0        
C4        C        0.277778        0.592592        0.38149564864864866        0        
C1        C        0.333333        0.018519        0.38149564864864866        0        
C2        C        0.388889        0.074075        0.38149564864864866        0        
C3        C        0.333333        0.092592        0.38149564864864866        0        
C4        C        0.388889        0.037037        0.38149564864864866        0        
C1        C        0.333333        0.12963        0.38149564864864866        0        
C2        C        0.388889        0.185185        0.38149564864864866        0        
C3        C        0.333333        0.203703        0.38149564864864866        0        
C4        C        0.388889        0.148148        0.38149564864864866        0        
C1        C        0.333333        0.24074099999999998        0.38149564864864866        0        
C2        C        0.388889        0.296297        0.38149564864864866        0        
C3        C        0.333333        0.314815        0.38149564864864866        0        
C4        C        0.388889        0.259259        0.38149564864864866        0        
C1        C        0.333333        0.351852        0.38149564864864866        0        
C2        C        0.388889        0.407408        0.38149564864864866        0        
C3        C        0.333333        0.42592500000000005        0.38149564864864866        0        
C4        C        0.388889        0.37037        0.38149564864864866        0        
C1        C        0.333333        0.46296300000000007        0.38149564864864866        0        
C2        C        0.388889        0.518519        0.38149564864864866        0        
C3        C        0.333333        0.537037        0.38149564864864866        0        
C4        C        0.388889        0.481481        0.38149564864864866        0        
C1        C        0.333333        0.574075        0.38149564864864866        0        
C2        C        0.388889        0.62963        0.38149564864864866        0        
C3        C        0.333333        0.648148        0.38149564864864866        0        
C4        C        0.388889        0.592592        0.38149564864864866        0        
C1        C        0.44444400000000006        0.018519        0.38149564864864866        0        
C2        C        0.5        0.074075        0.38149564864864866        0        
C3        C        0.44444400000000006        0.092592        0.38149564864864866        0        
C4        C        0.5        0.037037        0.38149564864864866        0        
C1        C        0.44444400000000006        0.12963        0.38149564864864866        0        
C2        C        0.5        0.185185        0.38149564864864866        0        
C3        C        0.44444400000000006        0.203703        0.38149564864864866        0        
C4        C        0.5        0.148148        0.38149564864864866        0        
C1        C        0.44444400000000006        0.24074099999999998        0.38149564864864866        0        
C2        C        0.5        0.296297        0.38149564864864866        0        
C3        C        0.44444400000000006        0.314815        0.38149564864864866        0        
C4        C        0.5        0.259259        0.38149564864864866        0        
C1        C        0.44444400000000006        0.351852        0.38149564864864866        0        
C2        C        0.5        0.407408        0.38149564864864866        0        
C3        C        0.44444400000000006        0.42592500000000005        0.38149564864864866        0        
C4        C        0.5        0.37037        0.38149564864864866        0        
C1        C        0.44444400000000006        0.46296300000000007        0.38149564864864866        0        
C2        C        0.5        0.518519        0.38149564864864866        0        
C3        C        0.44444400000000006        0.537037        0.38149564864864866        0        
C4        C        0.5        0.481481        0.38149564864864866        0        
C1        C        0.44444400000000006        0.574075        0.38149564864864866        0        
C2        C        0.5        0.62963        0.38149564864864866        0        
C3        C        0.44444400000000006        0.648148        0.38149564864864866        0        
C4        C        0.5        0.592592        0.38149564864864866        0        
C1        C        0.555556        0.018519        0.38149564864864866        0        
C2        C        0.611111        0.074075        0.38149564864864866        0        
C3        C        0.555556        0.092592        0.38149564864864866        0        
C4        C        0.611111        0.037037        0.38149564864864866        0        
C1        C        0.555556        0.12963        0.38149564864864866        0        
C2        C        0.611111        0.185185        0.38149564864864866        0        
C3        C        0.555556        0.203703        0.38149564864864866        0        
C4        C        0.611111        0.148148        0.38149564864864866        0        
C1        C        0.555556        0.24074099999999998        0.38149564864864866        0        
C2        C        0.611111        0.296297        0.38149564864864866        0        
C3        C        0.555556        0.314815        0.38149564864864866        0        
C4        C        0.611111        0.259259        0.38149564864864866        0        
C1        C        0.555556        0.351852        0.38149564864864866        0        
C2        C        0.611111        0.407408        0.38149564864864866        0        
C3        C        0.555556        0.42592500000000005        0.38149564864864866        0        
C4        C        0.611111        0.37037        0.38149564864864866        0        
C1        C        0.555556        0.46296300000000007        0.38149564864864866        0        
C2        C        0.611111        0.518519        0.38149564864864866        0        
C3        C        0.555556        0.537037        0.38149564864864866        0        
C4        C        0.611111        0.481481        0.38149564864864866        0        
C1        C        0.555556        0.574075        0.38149564864864866        0        
C2        C        0.611111        0.62963        0.38149564864864866        0        
C3        C        0.555556        0.648148        0.38149564864864866        0        
C4        C        0.611111        0.592592        0.38149564864864866        0        
C1        C        0.666667        0.018519        0.38149564864864866        0        
C2        C        0.722222        0.074075        0.38149564864864866        0        
C3        C        0.666667        0.092592        0.38149564864864866        0        
C4        C        0.722222        0.037037        0.38149564864864866        0        
C1        C        0.666667        0.12963        0.38149564864864866        0        
C2        C        0.722222        0.185185        0.38149564864864866        0        
C3        C        0.666667        0.203703        0.38149564864864866        0        
C4        C        0.722222        0.148148        0.38149564864864866        0        
C1        C        0.666667        0.24074099999999998        0.38149564864864866        0        
C2        C        0.722222        0.296297        0.38149564864864866        0        
C3        C        0.666667        0.314815        0.38149564864864866        0        
C4        C        0.722222        0.259259        0.38149564864864866        0        
C1        C        0.666667        0.351852        0.38149564864864866        0        
C2        C        0.722222        0.407408        0.38149564864864866        0        
C3        C        0.666667        0.42592500000000005        0.38149564864864866        0        
C4        C        0.722222        0.37037        0.38149564864864866        0        
C1        C        0.666667        0.46296300000000007        0.38149564864864866        0        
C2        C        0.722222        0.518519        0.38149564864864866        0        
C3        C        0.666667        0.537037        0.38149564864864866        0        
C4        C        0.722222        0.481481        0.38149564864864866        0        
C1        C        0.666667        0.574075        0.38149564864864866        0        
C2        C        0.722222        0.62963        0.38149564864864866        0        
C3        C        0.666667        0.648148        0.38149564864864866        0        
C4        C        0.722222        0.592592        0.38149564864864866        0        
C1        C        0.777778        0.018519        0.38149564864864866        0        
C2        C        0.833333        0.074075        0.38149564864864866        0        
C3        C        0.777778        0.092592        0.38149564864864866        0        
C4        C        0.833333        0.037037        0.38149564864864866        0        
C1        C        0.777778        0.12963        0.38149564864864866        0        
C2        C        0.833333        0.185185        0.38149564864864866        0        
C3        C        0.777778        0.203703        0.38149564864864866        0        
C4        C        0.833333        0.148148        0.38149564864864866        0        
C1        C        0.777778        0.24074099999999998        0.38149564864864866        0        
C2        C        0.833333        0.296297        0.38149564864864866        0        
C3        C        0.777778        0.314815        0.38149564864864866        0        
C4        C        0.833333        0.259259        0.38149564864864866        0        
C1        C        0.777778        0.351852        0.38149564864864866        0        
C2        C        0.833333        0.407408        0.38149564864864866        0        
C3        C        0.777778        0.42592500000000005        0.38149564864864866        0        
C4        C        0.833333        0.37037        0.38149564864864866        0        
C1        C        0.777778        0.46296300000000007        0.38149564864864866        0        
C2        C        0.833333        0.518519        0.38149564864864866        0        
C3        C        0.777778        0.537037        0.38149564864864866        0        
C4        C        0.833333        0.481481        0.38149564864864866        0        
C1        C        0.777778        0.574075        0.38149564864864866        0        
C2        C        0.833333        0.62963        0.38149564864864866        0        
C3        C        0.777778        0.648148        0.38149564864864866        0        
C4        C        0.833333        0.592592        0.38149564864864866        0        
C1        C        0.888889        0.018519        0.38149564864864866        0        
C2        C        0.944444        0.074075        0.38149564864864866        0        
C3        C        0.888889        0.092592        0.38149564864864866        0        
C4        C        0.944444        0.037037        0.38149564864864866        0        
C1        C        0.888889        0.12963        0.38149564864864866        0        
C2        C        0.944444        0.185185        0.38149564864864866        0        
C3        C        0.888889        0.203703        0.38149564864864866        0        
C4        C        0.944444        0.148148        0.38149564864864866        0        
C1        C        0.888889        0.24074099999999998        0.38149564864864866        0        
C2        C        0.944444        0.296297        0.38149564864864866        0        
C3        C        0.888889        0.314815        0.38149564864864866        0        
C4        C        0.944444        0.259259        0.38149564864864866        0        
C1        C        0.888889        0.351852        0.38149564864864866        0        
C2        C        0.944444        0.407408        0.38149564864864866        0        
C3        C        0.888889        0.42592500000000005        0.38149564864864866        0        
C4        C        0.944444        0.37037        0.38149564864864866        0        
C1        C        0.888889        0.46296300000000007        0.38149564864864866        0        
C2        C        0.944444        0.518519        0.38149564864864866        0        
C3        C        0.888889        0.537037        0.38149564864864866        0        
C4        C        0.944444        0.481481        0.38149564864864866        0        
C1        C        0.888889        0.574075        0.38149564864864866        0        
C2        C        0.944444        0.62963        0.38149564864864866        0        
C3        C        0.888889        0.648148        0.38149564864864866        0        
C4        C        0.944444        0.592592        0.38149564864864866        0        
C_FG        C        0.0        0.685186        0.38149564864864866        0.2        
C1        C        0.11111100000000002        0.685186        0.38149564864864866        0        
C_FG        C        0.22222200000000003        0.685186        0.38149564864864866        0.2        
C1        C        0.333333        0.685186        0.38149564864864866        0        
C1        C        0.44444400000000006        0.685186        0.38149564864864866        0        
C1        C        0.555556        0.685186        0.38149564864864866        0        
C1        C        0.666667        0.685186        0.38149564864864866        0        
C1        C        0.777778        0.685186        0.38149564864864866        0        
C1        C        0.888889        0.685186        0.38149564864864866        0        
C2        C        0.055556        0.740741        0.38149564864864866        0        
C2        C        0.166667        0.740741        0.38149564864864866        0        
C2        C        0.277778        0.740741        0.38149564864864866        0        
C2        C        0.388889        0.740741        0.38149564864864866        0        
C2        C        0.5        0.740741        0.38149564864864866        0        
C2        C        0.611111        0.740741        0.38149564864864866        0        
C2        C        0.722222        0.740741        0.38149564864864866        0        
C2        C        0.833333        0.740741        0.38149564864864866        0        
C2        C        0.944444        0.740741        0.38149564864864866        0        
C3        C        0.0        0.759259        0.38149564864864866        0        
C3        C        0.11111100000000002        0.759259        0.38149564864864866        0        
C3        C        0.22222200000000003        0.759259        0.38149564864864866        0        
C3        C        0.333333        0.759259        0.38149564864864866        0        
C3        C        0.44444400000000006        0.759259        0.38149564864864866        0        
C3        C        0.555556        0.759259        0.38149564864864866        0        
C3        C        0.666667        0.759259        0.38149564864864866        0        
C3        C        0.777778        0.759259        0.38149564864864866        0        
C3        C        0.888889        0.759259        0.38149564864864866        0        
C4        C        0.055556        0.703703        0.38149564864864866        0        
C4        C        0.166667        0.703703        0.38149564864864866        0        
C4        C        0.277778        0.703703        0.38149564864864866        0        
C4        C        0.388889        0.703703        0.38149564864864866        0        
C4        C        0.5        0.703703        0.38149564864864866        0        
C4        C        0.611111        0.703703        0.38149564864864866        0        
C4        C        0.722222        0.703703        0.38149564864864866        0        
C4        C        0.833333        0.703703        0.38149564864864866        0        
C4        C        0.944444        0.703703        0.38149564864864866        0        
C_FG        C        0.0        0.796297        0.38149564864864866        0.2        
C1        C        0.11111100000000002        0.796297        0.38149564864864866        0        
C_FG        C        0.22222200000000003        0.796297        0.38149564864864866        0.2        
C1        C        0.333333        0.796297        0.38149564864864866        0        
C1        C        0.44444400000000006        0.796297        0.38149564864864866        0        
C1        C        0.555556        0.796297        0.38149564864864866        0        
C1        C        0.666667        0.796297        0.38149564864864866        0        
C1        C        0.777778        0.796297        0.38149564864864866        0        
C1        C        0.888889        0.796297        0.38149564864864866        0        
C2        C        0.055556        0.851852        0.38149564864864866        0        
C2        C        0.166667        0.851852        0.38149564864864866        0        
C2        C        0.277778        0.851852        0.38149564864864866        0        
C2        C        0.388889        0.851852        0.38149564864864866        0        
C2        C        0.5        0.851852        0.38149564864864866        0        
C2        C        0.611111        0.851852        0.38149564864864866        0        
C2        C        0.722222        0.851852        0.38149564864864866        0        
C2        C        0.833333        0.851852        0.38149564864864866        0        
C2        C        0.944444        0.851852        0.38149564864864866        0        
C3        C        0.0        0.87037        0.38149564864864866        0        
C3        C        0.11111100000000002        0.87037        0.38149564864864866        0        
C3        C        0.22222200000000003        0.87037        0.38149564864864866        0        
C3        C        0.333333        0.87037        0.38149564864864866        0        
C3        C        0.44444400000000006        0.87037        0.38149564864864866        0        
C3        C        0.555556        0.87037        0.38149564864864866        0        
C3        C        0.666667        0.87037        0.38149564864864866        0        
C3        C        0.777778        0.87037        0.38149564864864866        0        
C3        C        0.888889        0.87037        0.38149564864864866        0        
C4        C        0.055556        0.814814        0.38149564864864866        0        
C4        C        0.166667        0.814814        0.38149564864864866        0        
C4        C        0.277778        0.814814        0.38149564864864866        0        
C4        C        0.388889        0.814814        0.38149564864864866        0        
C4        C        0.5        0.814814        0.38149564864864866        0        
C4        C        0.611111        0.814814        0.38149564864864866        0        
C4        C        0.722222        0.814814        0.38149564864864866        0        
C4        C        0.833333        0.814814        0.38149564864864866        0        
C4        C        0.944444        0.814814        0.38149564864864866        0        
C_FG        C        0.0        0.907408        0.38149564864864866        0.2        
C1        C        0.11111100000000002        0.907408        0.38149564864864866        0        
C_FG        C        0.22222200000000003        0.907408        0.38149564864864866        0.2        
C1        C        0.333333        0.907408        0.38149564864864866        0        
C1        C        0.44444400000000006        0.907408        0.38149564864864866        0        
C1        C        0.555556        0.907408        0.38149564864864866        0        
C1        C        0.666667        0.907408        0.38149564864864866        0        
C1        C        0.777778        0.907408        0.38149564864864866        0        
C1        C        0.888889        0.907408        0.38149564864864866        0        
C2        C        0.055556        0.962963        0.38149564864864866        0        
C2        C        0.166667        0.962963        0.38149564864864866        0        
C2        C        0.277778        0.962963        0.38149564864864866        0        
C2        C        0.388889        0.962963        0.38149564864864866        0        
C2        C        0.5        0.962963        0.38149564864864866        0        
C2        C        0.611111        0.962963        0.38149564864864866        0        
C2        C        0.722222        0.962963        0.38149564864864866        0        
C2        C        0.833333        0.962963        0.38149564864864866        0        
C2        C        0.944444        0.962963        0.38149564864864866        0        
C3        C        0.0        0.9814809999999999        0.38149564864864866        0        
C3        C        0.11111100000000002        0.9814809999999999        0.38149564864864866        0        
C3        C        0.22222200000000003        0.9814809999999999        0.38149564864864866        0        
C3        C        0.333333        0.9814809999999999        0.38149564864864866        0        
C3        C        0.44444400000000006        0.9814809999999999        0.38149564864864866        0        
C3        C        0.555556        0.9814809999999999        0.38149564864864866        0        
C3        C        0.666667        0.9814809999999999        0.38149564864864866        0        
C3        C        0.777778        0.9814809999999999        0.38149564864864866        0        
C3        C        0.888889        0.9814809999999999        0.38149564864864866        0        
C4        C        0.055556        0.925925        0.38149564864864866        0        
C4        C        0.166667        0.925925        0.38149564864864866        0        
C4        C        0.277778        0.925925        0.38149564864864866        0        
C4        C        0.388889        0.925925        0.38149564864864866        0        
C4        C        0.5        0.925925        0.38149564864864866        0        
C4        C        0.611111        0.925925        0.38149564864864866        0        
C4        C        0.722222        0.925925        0.38149564864864866        0        
C4        C        0.833333        0.925925        0.38149564864864866        0        
C4        C        0.944444        0.925925        0.38149564864864866        0        
O_OH        O        0.0        0.018519        0.015144099099099096        -0.64        
O_OH        O        0.0        0.12963        0.015144099099099096        -0.64        
O_OH        O        0.0        0.24074099999999998        0.015144099099099096        -0.64        
O_OH        O        0.0        0.351852        0.015144099099099096        -0.64        
O_OH        O        0.0        0.46296300000000007        0.015144099099099096        -0.64        
O_OH        O        0.0        0.574075        0.015144099099099096        -0.64        
O_OH        O        0.22222200000000003        0.018519        0.015144099099099096        -0.64        
O_OH        O        0.22222200000000003        0.12963        0.015144099099099096        -0.64        
O_OH        O        0.22222200000000003        0.24074099999999998        0.015144099099099096        -0.64        
O_OH        O        0.22222200000000003        0.351852        0.015144099099099096        -0.64        
O_OH        O        0.22222200000000003        0.46296300000000007        0.015144099099099096        -0.64        
O_OH        O        0.22222200000000003        0.574075        0.015144099099099096        -0.64        
O_OH        O        0.0        0.685186        0.015144099099099096        -0.64        
O_OH        O        0.22222200000000003        0.685186        0.015144099099099096        -0.64        
O_OH        O        0.0        0.796297        0.015144099099099096        -0.64        
O_OH        O        0.22222200000000003        0.796297        0.015144099099099096        -0.64        
O_OH        O        0.0        0.907408        0.015144099099099096        -0.64        
O_OH        O        0.22222200000000003        0.907408        0.015144099099099096        -0.64        
O_OH        O        0.0        0.018519        0.44604499999999997        -0.64        
O_OH        O        0.0        0.12963        0.44604499999999997        -0.64        
O_OH        O        0.0        0.24074099999999998        0.44604499999999997        -0.64        
O_OH        O        0.0        0.351852        0.44604499999999997        -0.64        
O_OH        O        0.0        0.46296300000000007        0.44604499999999997        -0.64        
O_OH        O        0.0        0.574075        0.44604499999999997        -0.64        
O_OH        O        0.22222200000000003        0.018519        0.44604499999999997        -0.64        
O_OH        O        0.22222200000000003        0.12963        0.44604499999999997        -0.64        
O_OH        O        0.22222200000000003        0.24074099999999998        0.44604499999999997        -0.64        
O_OH        O        0.22222200000000003        0.351852        0.44604499999999997        -0.64        
O_OH        O        0.22222200000000003        0.46296300000000007        0.44604499999999997        -0.64        
O_OH        O        0.22222200000000003        0.574075        0.44604499999999997        -0.64        
O_OH        O        0.0        0.685186        0.44604499999999997        -0.64        
O_OH        O        0.22222200000000003        0.685186        0.44604499999999997        -0.64        
O_OH        O        0.0        0.796297        0.44604499999999997        -0.64        
O_OH        O        0.22222200000000003        0.796297        0.44604499999999997        -0.64        
O_OH        O        0.0        0.907408        0.44604499999999997        -0.64        
O_OH        O        0.22222200000000003        0.907408        0.44604499999999997        -0.64        
H_OH        H        -0.00857424004860419        0.041443850386247594        0.0        0.44        
H_OH        H        0.009289178347866599        0.1524617760061156        0.0        0.44        
H_OH        H        0.009418772170455862        0.2635550643030666        0.0        0.44        
H_OH        H        -0.033117609184176514        0.3654287187449995        0.0        0.44        
H_OH        H        -0.01553820808578411        0.4846321897753063        0.0        0.44        
H_OH        H        0.013997758218444567        0.5960914944483151        0.0        0.44        
H_OH        H        0.18195582899848378        0.02158414044566834        0.0        0.44        
H_OH        H        0.24825550126209953        0.14763167562242951        0.0        0.44        
H_OH        H        0.2265902027832093        0.26405840615942616        0.0        0.44        
H_OH        H        0.20536000719444036        0.373188615233589        0.0        0.44        
H_OH        H        0.25340314142982184        0.4779912371194522        0.0        0.44        
H_OH        H        0.24300689614191553        0.5942245223189699        0.0        0.44        
H_OH        H        0.004906524629641074        0.7084676774936336        0.0        0.44        
H_OH        H        0.21092667399562176        0.7077141901014359        0.0        0.44        
H_OH        H        -0.03123147882729916        0.8112903407154346        0.0        0.44        
H_OH        H        0.26283633848728993        0.7963656096353859        0.0        0.44        
H_OH        H        -0.03659271862480176        0.9175837021883477        0.0        0.44        
H_OH        H        0.26055846978580965        0.915152353808247        0.0        0.44        
H_OH        H        -0.011493503098669498        0.04101374036309021        0.4611890990990991        0.44        
H_OH        H        0.025399499762025646        0.1479312068163253        0.4611890990990991        0.44        
H_OH        H        0.014113219799886965        0.26273290046103664        0.4611890990990991        0.44        
H_OH        H        0.0018388423970623693        0.37528140014219974        0.4611890990990991        0.44        
H_OH        H        -0.04061448848430795        0.4629883832647135        0.4611890990990991        0.44        
H_OH        H        -0.029854706363504024        0.5899761104666431        0.4611890990990991        0.44        
H_OH        H        0.20991958976275593        0.04087061225348716        0.4611890990990991        0.44        
H_OH        H        0.2609800543963901        0.13663976194935248        0.4611890990990991        0.44        
H_OH        H        0.19092265166361524        0.25568707169255844        0.4611890990990991        0.44        
H_OH        H        0.1820431492461029        0.35527800467080894        0.4611890990990991        0.44        
H_OH        H        0.1998156161883274        0.48252442322152383        0.4611890990990991        0.44        
H_OH        H        0.20537243929850402        0.5954148900395381        0.4611890990990991        0.44        
H_OH        H        -0.02423133713603734        0.7040079942593813        0.4611890990990991        0.44        
H_OH        H        0.1816105548478918        0.6854742293672623        0.4611890990990991        0.44        
H_OH        H        0.00643839842150609        0.8194538826010992        0.4611890990990991        0.44        
H_OH        H        0.182604321658858        0.8014612973364159        0.4611890990990991        0.44        
H_OH        H        0.02177032838143695        0.9272074766021359        0.4611890990990991        0.44        
H_OH        H        0.25640651195191894        0.9200722353105633        0.4611890990990991        0.44        
