data_graphite_ortho

_audit_creation_method RASPA-1.0
_audit_creation_date 2012-2-3
_audit_author_name 'David Dubbeldam'

_cell_length_a    39.36    
_cell_length_b    38.34    
_cell_length_c    46.3    
_cell_angle_alpha 90
_cell_angle_beta  90
_cell_angle_gamma 90
_cell_volume      69869.59      

_symmetry_cell_setting          triclinic
_symmetry_space_group_name_Hall 'P 1'
_symmetry_space_group_name_H-M  'P 1'
_symmetry_Int_Tables_number     1

_symmetry_equiv_pos_as_xyz 'x,y,z'

loop_
_atom_site_label
_atom_site_type_symbol
_atom_site_fract_x
_atom_site_fract_y
_atom_site_fract_z
_atom_site_charge
C1        C        0.0        0.018519        0.259179        0        
C2        C        0.03125        0.074075        0.259179        0        
C3        C        0.0        0.092592        0.259179        0        
C4        C        0.03125        0.037037        0.259179        0        
C1        C        0.0        0.12963        0.259179        0        
C2        C        0.03125        0.185185        0.259179        0        
C3        C        0.0        0.203703        0.259179        0        
C4        C        0.03125        0.148148        0.259179        0        
C1        C        0.0        0.240741        0.259179        0        
C2        C        0.03125        0.296297        0.259179        0        
C3        C        0.0        0.314815        0.259179        0        
C4        C        0.03125        0.259259        0.259179        0        
C1        C        0.0        0.351852        0.259179        0        
C2        C        0.03125        0.407408        0.259179        0        
C3        C        0.0        0.425925        0.259179        0        
C4        C        0.03125        0.37037        0.259179        0        
C1        C        0.0        0.462963        0.259179        0        
C2        C        0.03125        0.518519        0.259179        0        
C3        C        0.0        0.537037        0.259179        0        
C4        C        0.03125        0.481481        0.259179        0        
C1        C        0.0        0.574075        0.259179        0        
C2        C        0.03125        0.62963        0.259179        0        
C3        C        0.0        0.648148        0.259179        0        
C4        C        0.03125        0.592592        0.259179        0        
C1        C        0.0625        0.018519        0.259179        0        
C2        C        0.09375        0.074075        0.259179        0        
C3        C        0.0625        0.092592        0.259179        0        
C4        C        0.09375        0.037037        0.259179        0        
C1        C        0.0625        0.12963        0.259179        0        
C2        C        0.09375        0.185185        0.259179        0        
C3        C        0.0625        0.203703        0.259179        0        
C4        C        0.09375        0.148148        0.259179        0        
C1        C        0.0625        0.240741        0.259179        0        
C2        C        0.09375        0.296297        0.259179        0        
C3        C        0.0625        0.314815        0.259179        0        
C4        C        0.09375        0.259259        0.259179        0        
C1        C        0.0625        0.351852        0.259179        0        
C2        C        0.09375        0.407408        0.259179        0        
C3        C        0.0625        0.425925        0.259179        0        
C4        C        0.09375        0.37037        0.259179        0        
C1        C        0.0625        0.462963        0.259179        0        
C2        C        0.09375        0.518519        0.259179        0        
C3        C        0.0625        0.537037        0.259179        0        
C4        C        0.09375        0.481481        0.259179        0        
C1        C        0.0625        0.574075        0.259179        0        
C2        C        0.09375        0.62963        0.259179        0        
C3        C        0.0625        0.648148        0.259179        0        
C4        C        0.09375        0.592592        0.259179        0        
C1        C        0.125        0.018519        0.259179        0        
C2        C        0.15625        0.074075        0.259179        0        
C3        C        0.125        0.092592        0.259179        0        
C4        C        0.15625        0.037037        0.259179        0        
C1        C        0.125        0.12963        0.259179        0        
C2        C        0.15625        0.185185        0.259179        0        
C3        C        0.125        0.203703        0.259179        0        
C4        C        0.15625        0.148148        0.259179        0        
C1        C        0.125        0.240741        0.259179        0        
C2        C        0.15625        0.296297        0.259179        0        
C3        C        0.125        0.314815        0.259179        0        
C4        C        0.15625        0.259259        0.259179        0        
C1        C        0.125        0.351852        0.259179        0        
C2        C        0.15625        0.407408        0.259179        0        
C3        C        0.125        0.425925        0.259179        0        
C4        C        0.15625        0.37037        0.259179        0        
C1        C        0.125        0.462963        0.259179        0        
C2        C        0.15625        0.518519        0.259179        0        
C3        C        0.125        0.537037        0.259179        0        
C4        C        0.15625        0.481481        0.259179        0        
C1        C        0.125        0.574075        0.259179        0        
C2        C        0.15625        0.62963        0.259179        0        
C3        C        0.125        0.648148        0.259179        0        
C4        C        0.15625        0.592592        0.259179        0        
C1        C        0.1875        0.018519        0.259179        0        
C2        C        0.21875        0.074075        0.259179        0        
C3        C        0.1875        0.092592        0.259179        0        
C4        C        0.21875        0.037037        0.259179        0        
C1        C        0.1875        0.12963        0.259179        0        
C2        C        0.21875        0.185185        0.259179        0        
C3        C        0.1875        0.203703        0.259179        0        
C4        C        0.21875        0.148148        0.259179        0        
C1        C        0.1875        0.240741        0.259179        0        
C2        C        0.21875        0.296297        0.259179        0        
C3        C        0.1875        0.314815        0.259179        0        
C4        C        0.21875        0.259259        0.259179        0        
C1        C        0.1875        0.351852        0.259179        0        
C2        C        0.21875        0.407408        0.259179        0        
C3        C        0.1875        0.425925        0.259179        0        
C4        C        0.21875        0.37037        0.259179        0        
C1        C        0.1875        0.462963        0.259179        0        
C2        C        0.21875        0.518519        0.259179        0        
C3        C        0.1875        0.537037        0.259179        0        
C4        C        0.21875        0.481481        0.259179        0        
C1        C        0.1875        0.574075        0.259179        0        
C2        C        0.21875        0.62963        0.259179        0        
C3        C        0.1875        0.648148        0.259179        0        
C4        C        0.21875        0.592592        0.259179        0        
C1        C        0.25        0.018519        0.259179        0        
C2        C        0.28125        0.074075        0.259179        0        
C3        C        0.25        0.092592        0.259179        0        
C4        C        0.28125        0.037037        0.259179        0        
C1        C        0.25        0.12963        0.259179        0        
C2        C        0.28125        0.185185        0.259179        0        
C3        C        0.25        0.203703        0.259179        0        
C4        C        0.28125        0.148148        0.259179        0        
C1        C        0.25        0.240741        0.259179        0        
C2        C        0.28125        0.296297        0.259179        0        
C3        C        0.25        0.314815        0.259179        0        
C4        C        0.28125        0.259259        0.259179        0        
C1        C        0.25        0.351852        0.259179        0        
C2        C        0.28125        0.407408        0.259179        0        
C3        C        0.25        0.425925        0.259179        0        
C4        C        0.28125        0.37037        0.259179        0        
C1        C        0.25        0.462963        0.259179        0        
C2        C        0.28125        0.518519        0.259179        0        
C3        C        0.25        0.537037        0.259179        0        
C4        C        0.28125        0.481481        0.259179        0        
C1        C        0.25        0.574075        0.259179        0        
C2        C        0.28125        0.62963        0.259179        0        
C3        C        0.25        0.648148        0.259179        0        
C4        C        0.28125        0.592592        0.259179        0        
C1        C        0.3125        0.018519        0.259179        0        
C2        C        0.34375        0.074075        0.259179        0        
C3        C        0.3125        0.092592        0.259179        0        
C4        C        0.34375        0.037037        0.259179        0        
C1        C        0.3125        0.12963        0.259179        0        
C2        C        0.34375        0.185185        0.259179        0        
C3        C        0.3125        0.203703        0.259179        0        
C4        C        0.34375        0.148148        0.259179        0        
C1        C        0.3125        0.240741        0.259179        0        
C2        C        0.34375        0.296297        0.259179        0        
C3        C        0.3125        0.314815        0.259179        0        
C4        C        0.34375        0.259259        0.259179        0        
C1        C        0.3125        0.351852        0.259179        0        
C2        C        0.34375        0.407408        0.259179        0        
C3        C        0.3125        0.425925        0.259179        0        
C4        C        0.34375        0.37037        0.259179        0        
C1        C        0.3125        0.462963        0.259179        0        
C2        C        0.34375        0.518519        0.259179        0        
C3        C        0.3125        0.537037        0.259179        0        
C4        C        0.34375        0.481481        0.259179        0        
C1        C        0.3125        0.574075        0.259179        0        
C2        C        0.34375        0.62963        0.259179        0        
C3        C        0.3125        0.648148        0.259179        0        
C4        C        0.34375        0.592592        0.259179        0        
C1        C        0.375        0.018519        0.259179        0        
C2        C        0.40625        0.074075        0.259179        0        
C3        C        0.375        0.092592        0.259179        0        
C4        C        0.40625        0.037037        0.259179        0        
C1        C        0.375        0.12963        0.259179        0        
C2        C        0.40625        0.185185        0.259179        0        
C3        C        0.375        0.203703        0.259179        0        
C4        C        0.40625        0.148148        0.259179        0        
C1        C        0.375        0.240741        0.259179        0        
C2        C        0.40625        0.296297        0.259179        0        
C3        C        0.375        0.314815        0.259179        0        
C4        C        0.40625        0.259259        0.259179        0        
C1        C        0.375        0.351852        0.259179        0        
C2        C        0.40625        0.407408        0.259179        0        
C3        C        0.375        0.425925        0.259179        0        
C4        C        0.40625        0.37037        0.259179        0        
C1        C        0.375        0.462963        0.259179        0        
C2        C        0.40625        0.518519        0.259179        0        
C3        C        0.375        0.537037        0.259179        0        
C4        C        0.40625        0.481481        0.259179        0        
C1        C        0.375        0.574075        0.259179        0        
C2        C        0.40625        0.62963        0.259179        0        
C3        C        0.375        0.648148        0.259179        0        
C4        C        0.40625        0.592592        0.259179        0        
C1        C        0.4375        0.018519        0.259179        0        
C2        C        0.46875        0.074075        0.259179        0        
C3        C        0.4375        0.092592        0.259179        0        
C4        C        0.46875        0.037037        0.259179        0        
C1        C        0.4375        0.12963        0.259179        0        
C2        C        0.46875        0.185185        0.259179        0        
C3        C        0.4375        0.203703        0.259179        0        
C4        C        0.46875        0.148148        0.259179        0        
C1        C        0.4375        0.240741        0.259179        0        
C2        C        0.46875        0.296297        0.259179        0        
C3        C        0.4375        0.314815        0.259179        0        
C4        C        0.46875        0.259259        0.259179        0        
C1        C        0.4375        0.351852        0.259179        0        
C2        C        0.46875        0.407408        0.259179        0        
C3        C        0.4375        0.425925        0.259179        0        
C4        C        0.46875        0.37037        0.259179        0        
C1        C        0.4375        0.462963        0.259179        0        
C2        C        0.46875        0.518519        0.259179        0        
C3        C        0.4375        0.537037        0.259179        0        
C4        C        0.46875        0.481481        0.259179        0        
C1        C        0.4375        0.574075        0.259179        0        
C2        C        0.46875        0.62963        0.259179        0        
C3        C        0.4375        0.648148        0.259179        0        
C4        C        0.46875        0.592592        0.259179        0        
C1        C        0.5        0.018519        0.259179        0        
C2        C        0.53125        0.074075        0.259179        0        
C3        C        0.5        0.092592        0.259179        0        
C4        C        0.53125        0.037037        0.259179        0        
C1        C        0.5        0.12963        0.259179        0        
C2        C        0.53125        0.185185        0.259179        0        
C3        C        0.5        0.203703        0.259179        0        
C4        C        0.53125        0.148148        0.259179        0        
C1        C        0.5        0.240741        0.259179        0        
C2        C        0.53125        0.296297        0.259179        0        
C3        C        0.5        0.314815        0.259179        0        
C4        C        0.53125        0.259259        0.259179        0        
C1        C        0.5        0.351852        0.259179        0        
C2        C        0.53125        0.407408        0.259179        0        
C3        C        0.5        0.425925        0.259179        0        
C4        C        0.53125        0.37037        0.259179        0        
C1        C        0.5        0.462963        0.259179        0        
C2        C        0.53125        0.518519        0.259179        0        
C3        C        0.5        0.537037        0.259179        0        
C4        C        0.53125        0.481481        0.259179        0        
C1        C        0.5        0.574075        0.259179        0        
C2        C        0.53125        0.62963        0.259179        0        
C3        C        0.5        0.648148        0.259179        0        
C4        C        0.53125        0.592592        0.259179        0        
C1        C        0.5625        0.018519        0.259179        0        
C2        C        0.59375        0.074075        0.259179        0        
C3        C        0.5625        0.092592        0.259179        0        
C4        C        0.59375        0.037037        0.259179        0        
C1        C        0.5625        0.12963        0.259179        0        
C2        C        0.59375        0.185185        0.259179        0        
C3        C        0.5625        0.203703        0.259179        0        
C4        C        0.59375        0.148148        0.259179        0        
C1        C        0.5625        0.240741        0.259179        0        
C2        C        0.59375        0.296297        0.259179        0        
C3        C        0.5625        0.314815        0.259179        0        
C4        C        0.59375        0.259259        0.259179        0        
C1        C        0.5625        0.351852        0.259179        0        
C2        C        0.59375        0.407408        0.259179        0        
C3        C        0.5625        0.425925        0.259179        0        
C4        C        0.59375        0.37037        0.259179        0        
C1        C        0.5625        0.462963        0.259179        0        
C2        C        0.59375        0.518519        0.259179        0        
C3        C        0.5625        0.537037        0.259179        0        
C4        C        0.59375        0.481481        0.259179        0        
C1        C        0.5625        0.574075        0.259179        0        
C2        C        0.59375        0.62963        0.259179        0        
C3        C        0.5625        0.648148        0.259179        0        
C4        C        0.59375        0.592592        0.259179        0        
C1        C        0.625        0.018519        0.259179        0        
C2        C        0.65625        0.074075        0.259179        0        
C3        C        0.625        0.092592        0.259179        0        
C4        C        0.65625        0.037037        0.259179        0        
C1        C        0.625        0.12963        0.259179        0        
C2        C        0.65625        0.185185        0.259179        0        
C3        C        0.625        0.203703        0.259179        0        
C4        C        0.65625        0.148148        0.259179        0        
C1        C        0.625        0.240741        0.259179        0        
C2        C        0.65625        0.296297        0.259179        0        
C3        C        0.625        0.314815        0.259179        0        
C4        C        0.65625        0.259259        0.259179        0        
C1        C        0.625        0.351852        0.259179        0        
C2        C        0.65625        0.407408        0.259179        0        
C3        C        0.625        0.425925        0.259179        0        
C4        C        0.65625        0.37037        0.259179        0        
C1        C        0.625        0.462963        0.259179        0        
C2        C        0.65625        0.518519        0.259179        0        
C3        C        0.625        0.537037        0.259179        0        
C4        C        0.65625        0.481481        0.259179        0        
C1        C        0.625        0.574075        0.259179        0        
C2        C        0.65625        0.62963        0.259179        0        
C3        C        0.625        0.648148        0.259179        0        
C4        C        0.65625        0.592592        0.259179        0        
C1        C        0.6875        0.018519        0.259179        0        
C2        C        0.71875        0.074075        0.259179        0        
C3        C        0.6875        0.092592        0.259179        0        
C4        C        0.71875        0.037037        0.259179        0        
C1        C        0.6875        0.12963        0.259179        0        
C2        C        0.71875        0.185185        0.259179        0        
C3        C        0.6875        0.203703        0.259179        0        
C4        C        0.71875        0.148148        0.259179        0        
C1        C        0.6875        0.240741        0.259179        0        
C2        C        0.71875        0.296297        0.259179        0        
C3        C        0.6875        0.314815        0.259179        0        
C4        C        0.71875        0.259259        0.259179        0        
C1        C        0.6875        0.351852        0.259179        0        
C2        C        0.71875        0.407408        0.259179        0        
C3        C        0.6875        0.425925        0.259179        0        
C4        C        0.71875        0.37037        0.259179        0        
C1        C        0.6875        0.462963        0.259179        0        
C2        C        0.71875        0.518519        0.259179        0        
C3        C        0.6875        0.537037        0.259179        0        
C4        C        0.71875        0.481481        0.259179        0        
C1        C        0.6875        0.574075        0.259179        0        
C2        C        0.71875        0.62963        0.259179        0        
C3        C        0.6875        0.648148        0.259179        0        
C4        C        0.71875        0.592592        0.259179        0        
C1        C        0.75        0.018519        0.259179        0        
C2        C        0.78125        0.074075        0.259179        0        
C3        C        0.75        0.092592        0.259179        0        
C4        C        0.78125        0.037037        0.259179        0        
C1        C        0.75        0.12963        0.259179        0        
C2        C        0.78125        0.185185        0.259179        0        
C3        C        0.75        0.203703        0.259179        0        
C4        C        0.78125        0.148148        0.259179        0        
C1        C        0.75        0.240741        0.259179        0        
C2        C        0.78125        0.296297        0.259179        0        
C3        C        0.75        0.314815        0.259179        0        
C4        C        0.78125        0.259259        0.259179        0        
C1        C        0.75        0.351852        0.259179        0        
C2        C        0.78125        0.407408        0.259179        0        
C3        C        0.75        0.425925        0.259179        0        
C4        C        0.78125        0.37037        0.259179        0        
C1        C        0.75        0.462963        0.259179        0        
C2        C        0.78125        0.518519        0.259179        0        
C3        C        0.75        0.537037        0.259179        0        
C4        C        0.78125        0.481481        0.259179        0        
C1        C        0.75        0.574075        0.259179        0        
C2        C        0.78125        0.62963        0.259179        0        
C3        C        0.75        0.648148        0.259179        0        
C4        C        0.78125        0.592592        0.259179        0        
C1        C        0.8125        0.018519        0.259179        0        
C2        C        0.84375        0.074075        0.259179        0        
C3        C        0.8125        0.092592        0.259179        0        
C4        C        0.84375        0.037037        0.259179        0        
C1        C        0.8125        0.12963        0.259179        0        
C2        C        0.84375        0.185185        0.259179        0        
C3        C        0.8125        0.203703        0.259179        0        
C4        C        0.84375        0.148148        0.259179        0        
C1        C        0.8125        0.240741        0.259179        0        
C2        C        0.84375        0.296297        0.259179        0        
C3        C        0.8125        0.314815        0.259179        0        
C4        C        0.84375        0.259259        0.259179        0        
C1        C        0.8125        0.351852        0.259179        0        
C2        C        0.84375        0.407408        0.259179        0        
C3        C        0.8125        0.425925        0.259179        0        
C4        C        0.84375        0.37037        0.259179        0        
C1        C        0.8125        0.462963        0.259179        0        
C2        C        0.84375        0.518519        0.259179        0        
C3        C        0.8125        0.537037        0.259179        0        
C4        C        0.84375        0.481481        0.259179        0        
C1        C        0.8125        0.574075        0.259179        0        
C2        C        0.84375        0.62963        0.259179        0        
C3        C        0.8125        0.648148        0.259179        0        
C4        C        0.84375        0.592592        0.259179        0        
C1        C        0.875        0.018519        0.259179        0        
C2        C        0.90625        0.074075        0.259179        0        
C3        C        0.875        0.092592        0.259179        0        
C4        C        0.90625        0.037037        0.259179        0        
C1        C        0.875        0.12963        0.259179        0        
C2        C        0.90625        0.185185        0.259179        0        
C3        C        0.875        0.203703        0.259179        0        
C4        C        0.90625        0.148148        0.259179        0        
C1        C        0.875        0.240741        0.259179        0        
C2        C        0.90625        0.296297        0.259179        0        
C3        C        0.875        0.314815        0.259179        0        
C4        C        0.90625        0.259259        0.259179        0        
C1        C        0.875        0.351852        0.259179        0        
C2        C        0.90625        0.407408        0.259179        0        
C3        C        0.875        0.425925        0.259179        0        
C4        C        0.90625        0.37037        0.259179        0        
C1        C        0.875        0.462963        0.259179        0        
C2        C        0.90625        0.518519        0.259179        0        
C3        C        0.875        0.537037        0.259179        0        
C4        C        0.90625        0.481481        0.259179        0        
C1        C        0.875        0.574075        0.259179        0        
C2        C        0.90625        0.62963        0.259179        0        
C3        C        0.875        0.648148        0.259179        0        
C4        C        0.90625        0.592592        0.259179        0        
C1        C        0.9375        0.018519        0.259179        0        
C2        C        0.96875        0.074075        0.259179        0        
C3        C        0.9375        0.092592        0.259179        0        
C4        C        0.96875        0.037037        0.259179        0        
C1        C        0.9375        0.12963        0.259179        0        
C2        C        0.96875        0.185185        0.259179        0        
C3        C        0.9375        0.203703        0.259179        0        
C4        C        0.96875        0.148148        0.259179        0        
C1        C        0.9375        0.240741        0.259179        0        
C2        C        0.96875        0.296297        0.259179        0        
C3        C        0.9375        0.314815        0.259179        0        
C4        C        0.96875        0.259259        0.259179        0        
C1        C        0.9375        0.351852        0.259179        0        
C2        C        0.96875        0.407408        0.259179        0        
C3        C        0.9375        0.425925        0.259179        0        
C4        C        0.96875        0.37037        0.259179        0        
C1        C        0.9375        0.462963        0.259179        0        
C2        C        0.96875        0.518519        0.259179        0        
C3        C        0.9375        0.537037        0.259179        0        
C4        C        0.96875        0.481481        0.259179        0        
C1        C        0.9375        0.574075        0.259179        0        
C2        C        0.96875        0.62963        0.259179        0        
C3        C        0.9375        0.648148        0.259179        0        
C4        C        0.96875        0.592592        0.259179        0        
C1        C        0.0        0.685186        0.259179        0        
C1        C        0.0625        0.685186        0.259179        0        
C1        C        0.125        0.685186        0.259179        0        
C1        C        0.1875        0.685186        0.259179        0        
C1        C        0.25        0.685186        0.259179        0        
C1        C        0.3125        0.685186        0.259179        0        
C1        C        0.375        0.685186        0.259179        0        
C1        C        0.4375        0.685186        0.259179        0        
C1        C        0.5        0.685186        0.259179        0        
C1        C        0.5625        0.685186        0.259179        0        
C1        C        0.625        0.685186        0.259179        0        
C1        C        0.6875        0.685186        0.259179        0        
C1        C        0.75        0.685186        0.259179        0        
C1        C        0.8125        0.685186        0.259179        0        
C1        C        0.875        0.685186        0.259179        0        
C1        C        0.9375        0.685186        0.259179        0        
C2        C        0.03125        0.740741        0.259179        0        
C2        C        0.09375        0.740741        0.259179        0        
C2        C        0.15625        0.740741        0.259179        0        
C2        C        0.21875        0.740741        0.259179        0        
C2        C        0.28125        0.740741        0.259179        0        
C2        C        0.34375        0.740741        0.259179        0        
C2        C        0.40625        0.740741        0.259179        0        
C2        C        0.46875        0.740741        0.259179        0        
C2        C        0.53125        0.740741        0.259179        0        
C2        C        0.59375        0.740741        0.259179        0        
C2        C        0.65625        0.740741        0.259179        0        
C2        C        0.71875        0.740741        0.259179        0        
C2        C        0.78125        0.740741        0.259179        0        
C2        C        0.84375        0.740741        0.259179        0        
C2        C        0.90625        0.740741        0.259179        0        
C2        C        0.96875        0.740741        0.259179        0        
C3        C        0.0        0.759259        0.259179        0        
C3        C        0.0625        0.759259        0.259179        0        
C3        C        0.125        0.759259        0.259179        0        
C3        C        0.1875        0.759259        0.259179        0        
C3        C        0.25        0.759259        0.259179        0        
C3        C        0.3125        0.759259        0.259179        0        
C3        C        0.375        0.759259        0.259179        0        
C3        C        0.4375        0.759259        0.259179        0        
C3        C        0.5        0.759259        0.259179        0        
C3        C        0.5625        0.759259        0.259179        0        
C3        C        0.625        0.759259        0.259179        0        
C3        C        0.6875        0.759259        0.259179        0        
C3        C        0.75        0.759259        0.259179        0        
C3        C        0.8125        0.759259        0.259179        0        
C3        C        0.875        0.759259        0.259179        0        
C3        C        0.9375        0.759259        0.259179        0        
C4        C        0.03125        0.703703        0.259179        0        
C4        C        0.09375        0.703703        0.259179        0        
C4        C        0.15625        0.703703        0.259179        0        
C4        C        0.21875        0.703703        0.259179        0        
C4        C        0.28125        0.703703        0.259179        0        
C4        C        0.34375        0.703703        0.259179        0        
C4        C        0.40625        0.703703        0.259179        0        
C4        C        0.46875        0.703703        0.259179        0        
C4        C        0.53125        0.703703        0.259179        0        
C4        C        0.59375        0.703703        0.259179        0        
C4        C        0.65625        0.703703        0.259179        0        
C4        C        0.71875        0.703703        0.259179        0        
C4        C        0.78125        0.703703        0.259179        0        
C4        C        0.84375        0.703703        0.259179        0        
C4        C        0.90625        0.703703        0.259179        0        
C4        C        0.96875        0.703703        0.259179        0        
C1        C        0.0        0.796297        0.259179        0        
C1        C        0.0625        0.796297        0.259179        0        
C1        C        0.125        0.796297        0.259179        0        
C1        C        0.1875        0.796297        0.259179        0        
C1        C        0.25        0.796297        0.259179        0        
C1        C        0.3125        0.796297        0.259179        0        
C1        C        0.375        0.796297        0.259179        0        
C1        C        0.4375        0.796297        0.259179        0        
C1        C        0.5        0.796297        0.259179        0        
C1        C        0.5625        0.796297        0.259179        0        
C1        C        0.625        0.796297        0.259179        0        
C1        C        0.6875        0.796297        0.259179        0        
C1        C        0.75        0.796297        0.259179        0        
C1        C        0.8125        0.796297        0.259179        0        
C1        C        0.875        0.796297        0.259179        0        
C1        C        0.9375        0.796297        0.259179        0        
C2        C        0.03125        0.851852        0.259179        0        
C2        C        0.09375        0.851852        0.259179        0        
C2        C        0.15625        0.851852        0.259179        0        
C2        C        0.21875        0.851852        0.259179        0        
C2        C        0.28125        0.851852        0.259179        0        
C2        C        0.34375        0.851852        0.259179        0        
C2        C        0.40625        0.851852        0.259179        0        
C2        C        0.46875        0.851852        0.259179        0        
C2        C        0.53125        0.851852        0.259179        0        
C2        C        0.59375        0.851852        0.259179        0        
C2        C        0.65625        0.851852        0.259179        0        
C2        C        0.71875        0.851852        0.259179        0        
C2        C        0.78125        0.851852        0.259179        0        
C2        C        0.84375        0.851852        0.259179        0        
C2        C        0.90625        0.851852        0.259179        0        
C2        C        0.96875        0.851852        0.259179        0        
C3        C        0.0        0.87037        0.259179        0        
C3        C        0.0625        0.87037        0.259179        0        
C3        C        0.125        0.87037        0.259179        0        
C3        C        0.1875        0.87037        0.259179        0        
C3        C        0.25        0.87037        0.259179        0        
C3        C        0.3125        0.87037        0.259179        0        
C3        C        0.375        0.87037        0.259179        0        
C3        C        0.4375        0.87037        0.259179        0        
C3        C        0.5        0.87037        0.259179        0        
C3        C        0.5625        0.87037        0.259179        0        
C3        C        0.625        0.87037        0.259179        0        
C3        C        0.6875        0.87037        0.259179        0        
C3        C        0.75        0.87037        0.259179        0        
C3        C        0.8125        0.87037        0.259179        0        
C3        C        0.875        0.87037        0.259179        0        
C3        C        0.9375        0.87037        0.259179        0        
C4        C        0.03125        0.814814        0.259179        0        
C4        C        0.09375        0.814814        0.259179        0        
C4        C        0.15625        0.814814        0.259179        0        
C4        C        0.21875        0.814814        0.259179        0        
C4        C        0.28125        0.814814        0.259179        0        
C4        C        0.34375        0.814814        0.259179        0        
C4        C        0.40625        0.814814        0.259179        0        
C4        C        0.46875        0.814814        0.259179        0        
C4        C        0.53125        0.814814        0.259179        0        
C4        C        0.59375        0.814814        0.259179        0        
C4        C        0.65625        0.814814        0.259179        0        
C4        C        0.71875        0.814814        0.259179        0        
C4        C        0.78125        0.814814        0.259179        0        
C4        C        0.84375        0.814814        0.259179        0        
C4        C        0.90625        0.814814        0.259179        0        
C4        C        0.96875        0.814814        0.259179        0        
C1        C        0.0        0.907408        0.259179        0        
C1        C        0.0625        0.907408        0.259179        0        
C1        C        0.125        0.907408        0.259179        0        
C1        C        0.1875        0.907408        0.259179        0        
C1        C        0.25        0.907408        0.259179        0        
C1        C        0.3125        0.907408        0.259179        0        
C1        C        0.375        0.907408        0.259179        0        
C1        C        0.4375        0.907408        0.259179        0        
C1        C        0.5        0.907408        0.259179        0        
C1        C        0.5625        0.907408        0.259179        0        
C1        C        0.625        0.907408        0.259179        0        
C1        C        0.6875        0.907408        0.259179        0        
C1        C        0.75        0.907408        0.259179        0        
C1        C        0.8125        0.907408        0.259179        0        
C1        C        0.875        0.907408        0.259179        0        
C1        C        0.9375        0.907408        0.259179        0        
C2        C        0.03125        0.962963        0.259179        0        
C2        C        0.09375        0.962963        0.259179        0        
C2        C        0.15625        0.962963        0.259179        0        
C2        C        0.21875        0.962963        0.259179        0        
C2        C        0.28125        0.962963        0.259179        0        
C2        C        0.34375        0.962963        0.259179        0        
C2        C        0.40625        0.962963        0.259179        0        
C2        C        0.46875        0.962963        0.259179        0        
C2        C        0.53125        0.962963        0.259179        0        
C2        C        0.59375        0.962963        0.259179        0        
C2        C        0.65625        0.962963        0.259179        0        
C2        C        0.71875        0.962963        0.259179        0        
C2        C        0.78125        0.962963        0.259179        0        
C2        C        0.84375        0.962963        0.259179        0        
C2        C        0.90625        0.962963        0.259179        0        
C2        C        0.96875        0.962963        0.259179        0        
C3        C        0.0        0.981481        0.259179        0        
C3        C        0.0625        0.981481        0.259179        0        
C3        C        0.125        0.981481        0.259179        0        
C3        C        0.1875        0.981481        0.259179        0        
C3        C        0.25        0.981481        0.259179        0        
C3        C        0.3125        0.981481        0.259179        0        
C3        C        0.375        0.981481        0.259179        0        
C3        C        0.4375        0.981481        0.259179        0        
C3        C        0.5        0.981481        0.259179        0        
C3        C        0.5625        0.981481        0.259179        0        
C3        C        0.625        0.981481        0.259179        0        
C3        C        0.6875        0.981481        0.259179        0        
C3        C        0.75        0.981481        0.259179        0        
C3        C        0.8125        0.981481        0.259179        0        
C3        C        0.875        0.981481        0.259179        0        
C3        C        0.9375        0.981481        0.259179        0        
C4        C        0.03125        0.925925        0.259179        0        
C4        C        0.09375        0.925925        0.259179        0        
C4        C        0.15625        0.925925        0.259179        0        
C4        C        0.21875        0.925925        0.259179        0        
C4        C        0.28125        0.925925        0.259179        0        
C4        C        0.34375        0.925925        0.259179        0        
C4        C        0.40625        0.925925        0.259179        0        
C4        C        0.46875        0.925925        0.259179        0        
C4        C        0.53125        0.925925        0.259179        0        
C4        C        0.59375        0.925925        0.259179        0        
C4        C        0.65625        0.925925        0.259179        0        
C4        C        0.71875        0.925925        0.259179        0        
C4        C        0.78125        0.925925        0.259179        0        
C4        C        0.84375        0.925925        0.259179        0        
C4        C        0.90625        0.925925        0.259179        0        
C4        C        0.96875        0.925925        0.259179        0        
C1        C        0.0        0.018519        0.331534        0        
C2        C        0.03125        0.074075        0.331534        0        
C3        C        0.0        0.092592        0.331534        0        
C4        C        0.03125        0.037037        0.331534        0        
C1        C        0.0        0.12963        0.331534        0        
C2        C        0.03125        0.185185        0.331534        0        
C3        C        0.0        0.203703        0.331534        0        
C4        C        0.03125        0.148148        0.331534        0        
C1        C        0.0        0.240741        0.331534        0        
C2        C        0.03125        0.296297        0.331534        0        
C3        C        0.0        0.314815        0.331534        0        
C4        C        0.03125        0.259259        0.331534        0        
C1        C        0.0        0.351852        0.331534        0        
C2        C        0.03125        0.407408        0.331534        0        
C3        C        0.0        0.425925        0.331534        0        
C4        C        0.03125        0.37037        0.331534        0        
C1        C        0.0        0.462963        0.331534        0        
C2        C        0.03125        0.518519        0.331534        0        
C3        C        0.0        0.537037        0.331534        0        
C4        C        0.03125        0.481481        0.331534        0        
C1        C        0.0        0.574075        0.331534        0        
C2        C        0.03125        0.62963        0.331534        0        
C3        C        0.0        0.648148        0.331534        0        
C4        C        0.03125        0.592592        0.331534        0        
C1        C        0.0625        0.018519        0.331534        0        
C2        C        0.09375        0.074075        0.331534        0        
C3        C        0.0625        0.092592        0.331534        0        
C4        C        0.09375        0.037037        0.331534        0        
C1        C        0.0625        0.12963        0.331534        0        
C2        C        0.09375        0.185185        0.331534        0        
C3        C        0.0625        0.203703        0.331534        0        
C4        C        0.09375        0.148148        0.331534        0        
C1        C        0.0625        0.240741        0.331534        0        
C2        C        0.09375        0.296297        0.331534        0        
C3        C        0.0625        0.314815        0.331534        0        
C4        C        0.09375        0.259259        0.331534        0        
C1        C        0.0625        0.351852        0.331534        0        
C2        C        0.09375        0.407408        0.331534        0        
C3        C        0.0625        0.425925        0.331534        0        
C4        C        0.09375        0.37037        0.331534        0        
C1        C        0.0625        0.462963        0.331534        0        
C2        C        0.09375        0.518519        0.331534        0        
C3        C        0.0625        0.537037        0.331534        0        
C4        C        0.09375        0.481481        0.331534        0        
C1        C        0.0625        0.574075        0.331534        0        
C2        C        0.09375        0.62963        0.331534        0        
C3        C        0.0625        0.648148        0.331534        0        
C4        C        0.09375        0.592592        0.331534        0        
C1        C        0.125        0.018519        0.331534        0        
C2        C        0.15625        0.074075        0.331534        0        
C3        C        0.125        0.092592        0.331534        0        
C4        C        0.15625        0.037037        0.331534        0        
C1        C        0.125        0.12963        0.331534        0        
C2        C        0.15625        0.185185        0.331534        0        
C3        C        0.125        0.203703        0.331534        0        
C4        C        0.15625        0.148148        0.331534        0        
C1        C        0.125        0.240741        0.331534        0        
C2        C        0.15625        0.296297        0.331534        0        
C3        C        0.125        0.314815        0.331534        0        
C4        C        0.15625        0.259259        0.331534        0        
C1        C        0.125        0.351852        0.331534        0        
C2        C        0.15625        0.407408        0.331534        0        
C3        C        0.125        0.425925        0.331534        0        
C4        C        0.15625        0.37037        0.331534        0        
C1        C        0.125        0.462963        0.331534        0        
C2        C        0.15625        0.518519        0.331534        0        
C3        C        0.125        0.537037        0.331534        0        
C4        C        0.15625        0.481481        0.331534        0        
C1        C        0.125        0.574075        0.331534        0        
C2        C        0.15625        0.62963        0.331534        0        
C3        C        0.125        0.648148        0.331534        0        
C4        C        0.15625        0.592592        0.331534        0        
C1        C        0.1875        0.018519        0.331534        0        
C2        C        0.21875        0.074075        0.331534        0        
C3        C        0.1875        0.092592        0.331534        0        
C4        C        0.21875        0.037037        0.331534        0        
C1        C        0.1875        0.12963        0.331534        0        
C2        C        0.21875        0.185185        0.331534        0        
C3        C        0.1875        0.203703        0.331534        0        
C4        C        0.21875        0.148148        0.331534        0        
C1        C        0.1875        0.240741        0.331534        0        
C2        C        0.21875        0.296297        0.331534        0        
C3        C        0.1875        0.314815        0.331534        0        
C4        C        0.21875        0.259259        0.331534        0        
C1        C        0.1875        0.351852        0.331534        0        
C2        C        0.21875        0.407408        0.331534        0        
C3        C        0.1875        0.425925        0.331534        0        
C4        C        0.21875        0.37037        0.331534        0        
C1        C        0.1875        0.462963        0.331534        0        
C2        C        0.21875        0.518519        0.331534        0        
C3        C        0.1875        0.537037        0.331534        0        
C4        C        0.21875        0.481481        0.331534        0        
C1        C        0.1875        0.574075        0.331534        0        
C2        C        0.21875        0.62963        0.331534        0        
C3        C        0.1875        0.648148        0.331534        0        
C4        C        0.21875        0.592592        0.331534        0        
C1        C        0.25        0.018519        0.331534        0        
C2        C        0.28125        0.074075        0.331534        0        
C3        C        0.25        0.092592        0.331534        0        
C4        C        0.28125        0.037037        0.331534        0        
C1        C        0.25        0.12963        0.331534        0        
C2        C        0.28125        0.185185        0.331534        0        
C3        C        0.25        0.203703        0.331534        0        
C4        C        0.28125        0.148148        0.331534        0        
C1        C        0.25        0.240741        0.331534        0        
C2        C        0.28125        0.296297        0.331534        0        
C3        C        0.25        0.314815        0.331534        0        
C4        C        0.28125        0.259259        0.331534        0        
C1        C        0.25        0.351852        0.331534        0        
C2        C        0.28125        0.407408        0.331534        0        
C3        C        0.25        0.425925        0.331534        0        
C4        C        0.28125        0.37037        0.331534        0        
C1        C        0.25        0.462963        0.331534        0        
C2        C        0.28125        0.518519        0.331534        0        
C3        C        0.25        0.537037        0.331534        0        
C4        C        0.28125        0.481481        0.331534        0        
C1        C        0.25        0.574075        0.331534        0        
C2        C        0.28125        0.62963        0.331534        0        
C3        C        0.25        0.648148        0.331534        0        
C4        C        0.28125        0.592592        0.331534        0        
C1        C        0.3125        0.018519        0.331534        0        
C2        C        0.34375        0.074075        0.331534        0        
C3        C        0.3125        0.092592        0.331534        0        
C4        C        0.34375        0.037037        0.331534        0        
C1        C        0.3125        0.12963        0.331534        0        
C2        C        0.34375        0.185185        0.331534        0        
C3        C        0.3125        0.203703        0.331534        0        
C4        C        0.34375        0.148148        0.331534        0        
C1        C        0.3125        0.240741        0.331534        0        
C2        C        0.34375        0.296297        0.331534        0        
C3        C        0.3125        0.314815        0.331534        0        
C4        C        0.34375        0.259259        0.331534        0        
C1        C        0.3125        0.351852        0.331534        0        
C2        C        0.34375        0.407408        0.331534        0        
C3        C        0.3125        0.425925        0.331534        0        
C4        C        0.34375        0.37037        0.331534        0        
C1        C        0.3125        0.462963        0.331534        0        
C2        C        0.34375        0.518519        0.331534        0        
C3        C        0.3125        0.537037        0.331534        0        
C4        C        0.34375        0.481481        0.331534        0        
C1        C        0.3125        0.574075        0.331534        0        
C2        C        0.34375        0.62963        0.331534        0        
C3        C        0.3125        0.648148        0.331534        0        
C4        C        0.34375        0.592592        0.331534        0        
C1        C        0.375        0.018519        0.331534        0        
C2        C        0.40625        0.074075        0.331534        0        
C3        C        0.375        0.092592        0.331534        0        
C4        C        0.40625        0.037037        0.331534        0        
C1        C        0.375        0.12963        0.331534        0        
C2        C        0.40625        0.185185        0.331534        0        
C3        C        0.375        0.203703        0.331534        0        
C4        C        0.40625        0.148148        0.331534        0        
C1        C        0.375        0.240741        0.331534        0        
C2        C        0.40625        0.296297        0.331534        0        
C3        C        0.375        0.314815        0.331534        0        
C4        C        0.40625        0.259259        0.331534        0        
C1        C        0.375        0.351852        0.331534        0        
C2        C        0.40625        0.407408        0.331534        0        
C3        C        0.375        0.425925        0.331534        0        
C4        C        0.40625        0.37037        0.331534        0        
C1        C        0.375        0.462963        0.331534        0        
C2        C        0.40625        0.518519        0.331534        0        
C3        C        0.375        0.537037        0.331534        0        
C4        C        0.40625        0.481481        0.331534        0        
C1        C        0.375        0.574075        0.331534        0        
C2        C        0.40625        0.62963        0.331534        0        
C3        C        0.375        0.648148        0.331534        0        
C4        C        0.40625        0.592592        0.331534        0        
C1        C        0.4375        0.018519        0.331534        0        
C2        C        0.46875        0.074075        0.331534        0        
C3        C        0.4375        0.092592        0.331534        0        
C4        C        0.46875        0.037037        0.331534        0        
C1        C        0.4375        0.12963        0.331534        0        
C2        C        0.46875        0.185185        0.331534        0        
C3        C        0.4375        0.203703        0.331534        0        
C4        C        0.46875        0.148148        0.331534        0        
C1        C        0.4375        0.240741        0.331534        0        
C2        C        0.46875        0.296297        0.331534        0        
C3        C        0.4375        0.314815        0.331534        0        
C4        C        0.46875        0.259259        0.331534        0        
C1        C        0.4375        0.351852        0.331534        0        
C2        C        0.46875        0.407408        0.331534        0        
C3        C        0.4375        0.425925        0.331534        0        
C4        C        0.46875        0.37037        0.331534        0        
C1        C        0.4375        0.462963        0.331534        0        
C2        C        0.46875        0.518519        0.331534        0        
C3        C        0.4375        0.537037        0.331534        0        
C4        C        0.46875        0.481481        0.331534        0        
C1        C        0.4375        0.574075        0.331534        0        
C2        C        0.46875        0.62963        0.331534        0        
C3        C        0.4375        0.648148        0.331534        0        
C4        C        0.46875        0.592592        0.331534        0        
C1        C        0.5        0.018519        0.331534        0        
C2        C        0.53125        0.074075        0.331534        0        
C3        C        0.5        0.092592        0.331534        0        
C4        C        0.53125        0.037037        0.331534        0        
C1        C        0.5        0.12963        0.331534        0        
C2        C        0.53125        0.185185        0.331534        0        
C3        C        0.5        0.203703        0.331534        0        
C4        C        0.53125        0.148148        0.331534        0        
C1        C        0.5        0.240741        0.331534        0        
C2        C        0.53125        0.296297        0.331534        0        
C3        C        0.5        0.314815        0.331534        0        
C4        C        0.53125        0.259259        0.331534        0        
C1        C        0.5        0.351852        0.331534        0        
C2        C        0.53125        0.407408        0.331534        0        
C3        C        0.5        0.425925        0.331534        0        
C4        C        0.53125        0.37037        0.331534        0        
C1        C        0.5        0.462963        0.331534        0        
C2        C        0.53125        0.518519        0.331534        0        
C3        C        0.5        0.537037        0.331534        0        
C4        C        0.53125        0.481481        0.331534        0        
C1        C        0.5        0.574075        0.331534        0        
C2        C        0.53125        0.62963        0.331534        0        
C3        C        0.5        0.648148        0.331534        0        
C4        C        0.53125        0.592592        0.331534        0        
C1        C        0.5625        0.018519        0.331534        0        
C2        C        0.59375        0.074075        0.331534        0        
C3        C        0.5625        0.092592        0.331534        0        
C4        C        0.59375        0.037037        0.331534        0        
C1        C        0.5625        0.12963        0.331534        0        
C2        C        0.59375        0.185185        0.331534        0        
C3        C        0.5625        0.203703        0.331534        0        
C4        C        0.59375        0.148148        0.331534        0        
C1        C        0.5625        0.240741        0.331534        0        
C2        C        0.59375        0.296297        0.331534        0        
C3        C        0.5625        0.314815        0.331534        0        
C4        C        0.59375        0.259259        0.331534        0        
C1        C        0.5625        0.351852        0.331534        0        
C2        C        0.59375        0.407408        0.331534        0        
C3        C        0.5625        0.425925        0.331534        0        
C4        C        0.59375        0.37037        0.331534        0        
C1        C        0.5625        0.462963        0.331534        0        
C2        C        0.59375        0.518519        0.331534        0        
C3        C        0.5625        0.537037        0.331534        0        
C4        C        0.59375        0.481481        0.331534        0        
C1        C        0.5625        0.574075        0.331534        0        
C2        C        0.59375        0.62963        0.331534        0        
C3        C        0.5625        0.648148        0.331534        0        
C4        C        0.59375        0.592592        0.331534        0        
C1        C        0.625        0.018519        0.331534        0        
C2        C        0.65625        0.074075        0.331534        0        
C3        C        0.625        0.092592        0.331534        0        
C4        C        0.65625        0.037037        0.331534        0        
C1        C        0.625        0.12963        0.331534        0        
C2        C        0.65625        0.185185        0.331534        0        
C3        C        0.625        0.203703        0.331534        0        
C4        C        0.65625        0.148148        0.331534        0        
C1        C        0.625        0.240741        0.331534        0        
C2        C        0.65625        0.296297        0.331534        0        
C3        C        0.625        0.314815        0.331534        0        
C4        C        0.65625        0.259259        0.331534        0        
C1        C        0.625        0.351852        0.331534        0        
C2        C        0.65625        0.407408        0.331534        0        
C3        C        0.625        0.425925        0.331534        0        
C4        C        0.65625        0.37037        0.331534        0        
C1        C        0.625        0.462963        0.331534        0        
C2        C        0.65625        0.518519        0.331534        0        
C3        C        0.625        0.537037        0.331534        0        
C4        C        0.65625        0.481481        0.331534        0        
C1        C        0.625        0.574075        0.331534        0        
C2        C        0.65625        0.62963        0.331534        0        
C3        C        0.625        0.648148        0.331534        0        
C4        C        0.65625        0.592592        0.331534        0        
C1        C        0.6875        0.018519        0.331534        0        
C2        C        0.71875        0.074075        0.331534        0        
C3        C        0.6875        0.092592        0.331534        0        
C4        C        0.71875        0.037037        0.331534        0        
C1        C        0.6875        0.12963        0.331534        0        
C2        C        0.71875        0.185185        0.331534        0        
C3        C        0.6875        0.203703        0.331534        0        
C4        C        0.71875        0.148148        0.331534        0        
C1        C        0.6875        0.240741        0.331534        0        
C2        C        0.71875        0.296297        0.331534        0        
C3        C        0.6875        0.314815        0.331534        0        
C4        C        0.71875        0.259259        0.331534        0        
C1        C        0.6875        0.351852        0.331534        0        
C2        C        0.71875        0.407408        0.331534        0        
C3        C        0.6875        0.425925        0.331534        0        
C4        C        0.71875        0.37037        0.331534        0        
C1        C        0.6875        0.462963        0.331534        0        
C2        C        0.71875        0.518519        0.331534        0        
C3        C        0.6875        0.537037        0.331534        0        
C4        C        0.71875        0.481481        0.331534        0        
C1        C        0.6875        0.574075        0.331534        0        
C2        C        0.71875        0.62963        0.331534        0        
C3        C        0.6875        0.648148        0.331534        0        
C4        C        0.71875        0.592592        0.331534        0        
C1        C        0.75        0.018519        0.331534        0        
C2        C        0.78125        0.074075        0.331534        0        
C3        C        0.75        0.092592        0.331534        0        
C4        C        0.78125        0.037037        0.331534        0        
C1        C        0.75        0.12963        0.331534        0        
C2        C        0.78125        0.185185        0.331534        0        
C3        C        0.75        0.203703        0.331534        0        
C4        C        0.78125        0.148148        0.331534        0        
C1        C        0.75        0.240741        0.331534        0        
C2        C        0.78125        0.296297        0.331534        0        
C3        C        0.75        0.314815        0.331534        0        
C4        C        0.78125        0.259259        0.331534        0        
C1        C        0.75        0.351852        0.331534        0        
C2        C        0.78125        0.407408        0.331534        0        
C3        C        0.75        0.425925        0.331534        0        
C4        C        0.78125        0.37037        0.331534        0        
C1        C        0.75        0.462963        0.331534        0        
C2        C        0.78125        0.518519        0.331534        0        
C3        C        0.75        0.537037        0.331534        0        
C4        C        0.78125        0.481481        0.331534        0        
C1        C        0.75        0.574075        0.331534        0        
C2        C        0.78125        0.62963        0.331534        0        
C3        C        0.75        0.648148        0.331534        0        
C4        C        0.78125        0.592592        0.331534        0        
C1        C        0.8125        0.018519        0.331534        0        
C2        C        0.84375        0.074075        0.331534        0        
C3        C        0.8125        0.092592        0.331534        0        
C4        C        0.84375        0.037037        0.331534        0        
C1        C        0.8125        0.12963        0.331534        0        
C2        C        0.84375        0.185185        0.331534        0        
C3        C        0.8125        0.203703        0.331534        0        
C4        C        0.84375        0.148148        0.331534        0        
C1        C        0.8125        0.240741        0.331534        0        
C2        C        0.84375        0.296297        0.331534        0        
C3        C        0.8125        0.314815        0.331534        0        
C4        C        0.84375        0.259259        0.331534        0        
C1        C        0.8125        0.351852        0.331534        0        
C2        C        0.84375        0.407408        0.331534        0        
C3        C        0.8125        0.425925        0.331534        0        
C4        C        0.84375        0.37037        0.331534        0        
C1        C        0.8125        0.462963        0.331534        0        
C2        C        0.84375        0.518519        0.331534        0        
C3        C        0.8125        0.537037        0.331534        0        
C4        C        0.84375        0.481481        0.331534        0        
C1        C        0.8125        0.574075        0.331534        0        
C2        C        0.84375        0.62963        0.331534        0        
C3        C        0.8125        0.648148        0.331534        0        
C4        C        0.84375        0.592592        0.331534        0        
C1        C        0.875        0.018519        0.331534        0        
C2        C        0.90625        0.074075        0.331534        0        
C3        C        0.875        0.092592        0.331534        0        
C4        C        0.90625        0.037037        0.331534        0        
C1        C        0.875        0.12963        0.331534        0        
C2        C        0.90625        0.185185        0.331534        0        
C3        C        0.875        0.203703        0.331534        0        
C4        C        0.90625        0.148148        0.331534        0        
C1        C        0.875        0.240741        0.331534        0        
C2        C        0.90625        0.296297        0.331534        0        
C3        C        0.875        0.314815        0.331534        0        
C4        C        0.90625        0.259259        0.331534        0        
C1        C        0.875        0.351852        0.331534        0        
C2        C        0.90625        0.407408        0.331534        0        
C3        C        0.875        0.425925        0.331534        0        
C4        C        0.90625        0.37037        0.331534        0        
C1        C        0.875        0.462963        0.331534        0        
C2        C        0.90625        0.518519        0.331534        0        
C3        C        0.875        0.537037        0.331534        0        
C4        C        0.90625        0.481481        0.331534        0        
C1        C        0.875        0.574075        0.331534        0        
C2        C        0.90625        0.62963        0.331534        0        
C3        C        0.875        0.648148        0.331534        0        
C4        C        0.90625        0.592592        0.331534        0        
C1        C        0.9375        0.018519        0.331534        0        
C2        C        0.96875        0.074075        0.331534        0        
C3        C        0.9375        0.092592        0.331534        0        
C4        C        0.96875        0.037037        0.331534        0        
C1        C        0.9375        0.12963        0.331534        0        
C2        C        0.96875        0.185185        0.331534        0        
C3        C        0.9375        0.203703        0.331534        0        
C4        C        0.96875        0.148148        0.331534        0        
C1        C        0.9375        0.240741        0.331534        0        
C2        C        0.96875        0.296297        0.331534        0        
C3        C        0.9375        0.314815        0.331534        0        
C4        C        0.96875        0.259259        0.331534        0        
C1        C        0.9375        0.351852        0.331534        0        
C2        C        0.96875        0.407408        0.331534        0        
C3        C        0.9375        0.425925        0.331534        0        
C4        C        0.96875        0.37037        0.331534        0        
C1        C        0.9375        0.462963        0.331534        0        
C2        C        0.96875        0.518519        0.331534        0        
C3        C        0.9375        0.537037        0.331534        0        
C4        C        0.96875        0.481481        0.331534        0        
C1        C        0.9375        0.574075        0.331534        0        
C2        C        0.96875        0.62963        0.331534        0        
C3        C        0.9375        0.648148        0.331534        0        
C4        C        0.96875        0.592592        0.331534        0        
C1        C        0.0        0.685186        0.331534        0        
C1        C        0.0625        0.685186        0.331534        0        
C1        C        0.125        0.685186        0.331534        0        
C1        C        0.1875        0.685186        0.331534        0        
C1        C        0.25        0.685186        0.331534        0        
C1        C        0.3125        0.685186        0.331534        0        
C1        C        0.375        0.685186        0.331534        0        
C1        C        0.4375        0.685186        0.331534        0        
C1        C        0.5        0.685186        0.331534        0        
C1        C        0.5625        0.685186        0.331534        0        
C1        C        0.625        0.685186        0.331534        0        
C1        C        0.6875        0.685186        0.331534        0        
C1        C        0.75        0.685186        0.331534        0        
C1        C        0.8125        0.685186        0.331534        0        
C1        C        0.875        0.685186        0.331534        0        
C1        C        0.9375        0.685186        0.331534        0        
C2        C        0.03125        0.740741        0.331534        0        
C2        C        0.09375        0.740741        0.331534        0        
C2        C        0.15625        0.740741        0.331534        0        
C2        C        0.21875        0.740741        0.331534        0        
C2        C        0.28125        0.740741        0.331534        0        
C2        C        0.34375        0.740741        0.331534        0        
C2        C        0.40625        0.740741        0.331534        0        
C2        C        0.46875        0.740741        0.331534        0        
C2        C        0.53125        0.740741        0.331534        0        
C2        C        0.59375        0.740741        0.331534        0        
C2        C        0.65625        0.740741        0.331534        0        
C2        C        0.71875        0.740741        0.331534        0        
C2        C        0.78125        0.740741        0.331534        0        
C2        C        0.84375        0.740741        0.331534        0        
C2        C        0.90625        0.740741        0.331534        0        
C2        C        0.96875        0.740741        0.331534        0        
C3        C        0.0        0.759259        0.331534        0        
C3        C        0.0625        0.759259        0.331534        0        
C3        C        0.125        0.759259        0.331534        0        
C3        C        0.1875        0.759259        0.331534        0        
C3        C        0.25        0.759259        0.331534        0        
C3        C        0.3125        0.759259        0.331534        0        
C3        C        0.375        0.759259        0.331534        0        
C3        C        0.4375        0.759259        0.331534        0        
C3        C        0.5        0.759259        0.331534        0        
C3        C        0.5625        0.759259        0.331534        0        
C3        C        0.625        0.759259        0.331534        0        
C3        C        0.6875        0.759259        0.331534        0        
C3        C        0.75        0.759259        0.331534        0        
C3        C        0.8125        0.759259        0.331534        0        
C3        C        0.875        0.759259        0.331534        0        
C3        C        0.9375        0.759259        0.331534        0        
C4        C        0.03125        0.703703        0.331534        0        
C4        C        0.09375        0.703703        0.331534        0        
C4        C        0.15625        0.703703        0.331534        0        
C4        C        0.21875        0.703703        0.331534        0        
C4        C        0.28125        0.703703        0.331534        0        
C4        C        0.34375        0.703703        0.331534        0        
C4        C        0.40625        0.703703        0.331534        0        
C4        C        0.46875        0.703703        0.331534        0        
C4        C        0.53125        0.703703        0.331534        0        
C4        C        0.59375        0.703703        0.331534        0        
C4        C        0.65625        0.703703        0.331534        0        
C4        C        0.71875        0.703703        0.331534        0        
C4        C        0.78125        0.703703        0.331534        0        
C4        C        0.84375        0.703703        0.331534        0        
C4        C        0.90625        0.703703        0.331534        0        
C4        C        0.96875        0.703703        0.331534        0        
C1        C        0.0        0.796297        0.331534        0        
C1        C        0.0625        0.796297        0.331534        0        
C1        C        0.125        0.796297        0.331534        0        
C1        C        0.1875        0.796297        0.331534        0        
C1        C        0.25        0.796297        0.331534        0        
C1        C        0.3125        0.796297        0.331534        0        
C1        C        0.375        0.796297        0.331534        0        
C1        C        0.4375        0.796297        0.331534        0        
C1        C        0.5        0.796297        0.331534        0        
C1        C        0.5625        0.796297        0.331534        0        
C1        C        0.625        0.796297        0.331534        0        
C1        C        0.6875        0.796297        0.331534        0        
C1        C        0.75        0.796297        0.331534        0        
C1        C        0.8125        0.796297        0.331534        0        
C1        C        0.875        0.796297        0.331534        0        
C1        C        0.9375        0.796297        0.331534        0        
C2        C        0.03125        0.851852        0.331534        0        
C2        C        0.09375        0.851852        0.331534        0        
C2        C        0.15625        0.851852        0.331534        0        
C2        C        0.21875        0.851852        0.331534        0        
C2        C        0.28125        0.851852        0.331534        0        
C2        C        0.34375        0.851852        0.331534        0        
C2        C        0.40625        0.851852        0.331534        0        
C2        C        0.46875        0.851852        0.331534        0        
C2        C        0.53125        0.851852        0.331534        0        
C2        C        0.59375        0.851852        0.331534        0        
C2        C        0.65625        0.851852        0.331534        0        
C2        C        0.71875        0.851852        0.331534        0        
C2        C        0.78125        0.851852        0.331534        0        
C2        C        0.84375        0.851852        0.331534        0        
C2        C        0.90625        0.851852        0.331534        0        
C2        C        0.96875        0.851852        0.331534        0        
C3        C        0.0        0.87037        0.331534        0        
C3        C        0.0625        0.87037        0.331534        0        
C3        C        0.125        0.87037        0.331534        0        
C3        C        0.1875        0.87037        0.331534        0        
C3        C        0.25        0.87037        0.331534        0        
C3        C        0.3125        0.87037        0.331534        0        
C3        C        0.375        0.87037        0.331534        0        
C3        C        0.4375        0.87037        0.331534        0        
C3        C        0.5        0.87037        0.331534        0        
C3        C        0.5625        0.87037        0.331534        0        
C3        C        0.625        0.87037        0.331534        0        
C3        C        0.6875        0.87037        0.331534        0        
C3        C        0.75        0.87037        0.331534        0        
C3        C        0.8125        0.87037        0.331534        0        
C3        C        0.875        0.87037        0.331534        0        
C3        C        0.9375        0.87037        0.331534        0        
C4        C        0.03125        0.814814        0.331534        0        
C4        C        0.09375        0.814814        0.331534        0        
C4        C        0.15625        0.814814        0.331534        0        
C4        C        0.21875        0.814814        0.331534        0        
C4        C        0.28125        0.814814        0.331534        0        
C4        C        0.34375        0.814814        0.331534        0        
C4        C        0.40625        0.814814        0.331534        0        
C4        C        0.46875        0.814814        0.331534        0        
C4        C        0.53125        0.814814        0.331534        0        
C4        C        0.59375        0.814814        0.331534        0        
C4        C        0.65625        0.814814        0.331534        0        
C4        C        0.71875        0.814814        0.331534        0        
C4        C        0.78125        0.814814        0.331534        0        
C4        C        0.84375        0.814814        0.331534        0        
C4        C        0.90625        0.814814        0.331534        0        
C4        C        0.96875        0.814814        0.331534        0        
C1        C        0.0        0.907408        0.331534        0        
C1        C        0.0625        0.907408        0.331534        0        
C1        C        0.125        0.907408        0.331534        0        
C1        C        0.1875        0.907408        0.331534        0        
C1        C        0.25        0.907408        0.331534        0        
C1        C        0.3125        0.907408        0.331534        0        
C1        C        0.375        0.907408        0.331534        0        
C1        C        0.4375        0.907408        0.331534        0        
C1        C        0.5        0.907408        0.331534        0        
C1        C        0.5625        0.907408        0.331534        0        
C1        C        0.625        0.907408        0.331534        0        
C1        C        0.6875        0.907408        0.331534        0        
C1        C        0.75        0.907408        0.331534        0        
C1        C        0.8125        0.907408        0.331534        0        
C1        C        0.875        0.907408        0.331534        0        
C1        C        0.9375        0.907408        0.331534        0        
C2        C        0.03125        0.962963        0.331534        0        
C2        C        0.09375        0.962963        0.331534        0        
C2        C        0.15625        0.962963        0.331534        0        
C2        C        0.21875        0.962963        0.331534        0        
C2        C        0.28125        0.962963        0.331534        0        
C2        C        0.34375        0.962963        0.331534        0        
C2        C        0.40625        0.962963        0.331534        0        
C2        C        0.46875        0.962963        0.331534        0        
C2        C        0.53125        0.962963        0.331534        0        
C2        C        0.59375        0.962963        0.331534        0        
C2        C        0.65625        0.962963        0.331534        0        
C2        C        0.71875        0.962963        0.331534        0        
C2        C        0.78125        0.962963        0.331534        0        
C2        C        0.84375        0.962963        0.331534        0        
C2        C        0.90625        0.962963        0.331534        0        
C2        C        0.96875        0.962963        0.331534        0        
C3        C        0.0        0.981481        0.331534        0        
C3        C        0.0625        0.981481        0.331534        0        
C3        C        0.125        0.981481        0.331534        0        
C3        C        0.1875        0.981481        0.331534        0        
C3        C        0.25        0.981481        0.331534        0        
C3        C        0.3125        0.981481        0.331534        0        
C3        C        0.375        0.981481        0.331534        0        
C3        C        0.4375        0.981481        0.331534        0        
C3        C        0.5        0.981481        0.331534        0        
C3        C        0.5625        0.981481        0.331534        0        
C3        C        0.625        0.981481        0.331534        0        
C3        C        0.6875        0.981481        0.331534        0        
C3        C        0.75        0.981481        0.331534        0        
C3        C        0.8125        0.981481        0.331534        0        
C3        C        0.875        0.981481        0.331534        0        
C3        C        0.9375        0.981481        0.331534        0        
C4        C        0.03125        0.925925        0.331534        0        
C4        C        0.09375        0.925925        0.331534        0        
C4        C        0.15625        0.925925        0.331534        0        
C4        C        0.21875        0.925925        0.331534        0        
C4        C        0.28125        0.925925        0.331534        0        
C4        C        0.34375        0.925925        0.331534        0        
C4        C        0.40625        0.925925        0.331534        0        
C4        C        0.46875        0.925925        0.331534        0        
C4        C        0.53125        0.925925        0.331534        0        
C4        C        0.59375        0.925925        0.331534        0        
C4        C        0.65625        0.925925        0.331534        0        
C4        C        0.71875        0.925925        0.331534        0        
C4        C        0.78125        0.925925        0.331534        0        
C4        C        0.84375        0.925925        0.331534        0        
C4        C        0.90625        0.925925        0.331534        0        
C4        C        0.96875        0.925925        0.331534        0        
C1        C        0.0        0.018519        0.403888        0        
C2        C        0.03125        0.074075        0.403888        0        
C3        C        0.0        0.092592        0.403888        0        
C4        C        0.03125        0.037037        0.403888        0        
C1        C        0.0        0.12963        0.403888        0        
C2        C        0.03125        0.185185        0.403888        0        
C3        C        0.0        0.203703        0.403888        0        
C4        C        0.03125        0.148148        0.403888        0        
C1        C        0.0        0.240741        0.403888        0        
C2        C        0.03125        0.296297        0.403888        0        
C3        C        0.0        0.314815        0.403888        0        
C4        C        0.03125        0.259259        0.403888        0        
C1        C        0.0        0.351852        0.403888        0        
C2        C        0.03125        0.407408        0.403888        0        
C3        C        0.0        0.425925        0.403888        0        
C4        C        0.03125        0.37037        0.403888        0        
C1        C        0.0        0.462963        0.403888        0        
C2        C        0.03125        0.518519        0.403888        0        
C3        C        0.0        0.537037        0.403888        0        
C4        C        0.03125        0.481481        0.403888        0        
C1        C        0.0        0.574075        0.403888        0        
C2        C        0.03125        0.62963        0.403888        0        
C3        C        0.0        0.648148        0.403888        0        
C4        C        0.03125        0.592592        0.403888        0        
C1        C        0.0625        0.018519        0.403888        0        
C2        C        0.09375        0.074075        0.403888        0        
C3        C        0.0625        0.092592        0.403888        0        
C4        C        0.09375        0.037037        0.403888        0        
C1        C        0.0625        0.12963        0.403888        0        
C2        C        0.09375        0.185185        0.403888        0        
C3        C        0.0625        0.203703        0.403888        0        
C4        C        0.09375        0.148148        0.403888        0        
C1        C        0.0625        0.240741        0.403888        0        
C2        C        0.09375        0.296297        0.403888        0        
C3        C        0.0625        0.314815        0.403888        0        
C4        C        0.09375        0.259259        0.403888        0        
C1        C        0.0625        0.351852        0.403888        0        
C2        C        0.09375        0.407408        0.403888        0        
C3        C        0.0625        0.425925        0.403888        0        
C4        C        0.09375        0.37037        0.403888        0        
C1        C        0.0625        0.462963        0.403888        0        
C2        C        0.09375        0.518519        0.403888        0        
C3        C        0.0625        0.537037        0.403888        0        
C4        C        0.09375        0.481481        0.403888        0        
C1        C        0.0625        0.574075        0.403888        0        
C2        C        0.09375        0.62963        0.403888        0        
C3        C        0.0625        0.648148        0.403888        0        
C4        C        0.09375        0.592592        0.403888        0        
C1        C        0.125        0.018519        0.403888        0        
C2        C        0.15625        0.074075        0.403888        0        
C3        C        0.125        0.092592        0.403888        0        
C4        C        0.15625        0.037037        0.403888        0        
C1        C        0.125        0.12963        0.403888        0        
C2        C        0.15625        0.185185        0.403888        0        
C3        C        0.125        0.203703        0.403888        0        
C4        C        0.15625        0.148148        0.403888        0        
C1        C        0.125        0.240741        0.403888        0        
C2        C        0.15625        0.296297        0.403888        0        
C3        C        0.125        0.314815        0.403888        0        
C4        C        0.15625        0.259259        0.403888        0        
C1        C        0.125        0.351852        0.403888        0        
C2        C        0.15625        0.407408        0.403888        0        
C3        C        0.125        0.425925        0.403888        0        
C4        C        0.15625        0.37037        0.403888        0        
C1        C        0.125        0.462963        0.403888        0        
C2        C        0.15625        0.518519        0.403888        0        
C3        C        0.125        0.537037        0.403888        0        
C4        C        0.15625        0.481481        0.403888        0        
C1        C        0.125        0.574075        0.403888        0        
C2        C        0.15625        0.62963        0.403888        0        
C3        C        0.125        0.648148        0.403888        0        
C4        C        0.15625        0.592592        0.403888        0        
C1        C        0.1875        0.018519        0.403888        0        
C2        C        0.21875        0.074075        0.403888        0        
C3        C        0.1875        0.092592        0.403888        0        
C4        C        0.21875        0.037037        0.403888        0        
C1        C        0.1875        0.12963        0.403888        0        
C2        C        0.21875        0.185185        0.403888        0        
C3        C        0.1875        0.203703        0.403888        0        
C4        C        0.21875        0.148148        0.403888        0        
C1        C        0.1875        0.240741        0.403888        0        
C2        C        0.21875        0.296297        0.403888        0        
C3        C        0.1875        0.314815        0.403888        0        
C4        C        0.21875        0.259259        0.403888        0        
C1        C        0.1875        0.351852        0.403888        0        
C2        C        0.21875        0.407408        0.403888        0        
C3        C        0.1875        0.425925        0.403888        0        
C4        C        0.21875        0.37037        0.403888        0        
C1        C        0.1875        0.462963        0.403888        0        
C2        C        0.21875        0.518519        0.403888        0        
C3        C        0.1875        0.537037        0.403888        0        
C4        C        0.21875        0.481481        0.403888        0        
C1        C        0.1875        0.574075        0.403888        0        
C2        C        0.21875        0.62963        0.403888        0        
C3        C        0.1875        0.648148        0.403888        0        
C4        C        0.21875        0.592592        0.403888        0        
C1        C        0.25        0.018519        0.403888        0        
C2        C        0.28125        0.074075        0.403888        0        
C3        C        0.25        0.092592        0.403888        0        
C4        C        0.28125        0.037037        0.403888        0        
C1        C        0.25        0.12963        0.403888        0        
C2        C        0.28125        0.185185        0.403888        0        
C3        C        0.25        0.203703        0.403888        0        
C4        C        0.28125        0.148148        0.403888        0        
C1        C        0.25        0.240741        0.403888        0        
C2        C        0.28125        0.296297        0.403888        0        
C3        C        0.25        0.314815        0.403888        0        
C4        C        0.28125        0.259259        0.403888        0        
C1        C        0.25        0.351852        0.403888        0        
C2        C        0.28125        0.407408        0.403888        0        
C3        C        0.25        0.425925        0.403888        0        
C4        C        0.28125        0.37037        0.403888        0        
C1        C        0.25        0.462963        0.403888        0        
C2        C        0.28125        0.518519        0.403888        0        
C3        C        0.25        0.537037        0.403888        0        
C4        C        0.28125        0.481481        0.403888        0        
C1        C        0.25        0.574075        0.403888        0        
C2        C        0.28125        0.62963        0.403888        0        
C3        C        0.25        0.648148        0.403888        0        
C4        C        0.28125        0.592592        0.403888        0        
C1        C        0.3125        0.018519        0.403888        0        
C2        C        0.34375        0.074075        0.403888        0        
C3        C        0.3125        0.092592        0.403888        0        
C4        C        0.34375        0.037037        0.403888        0        
C1        C        0.3125        0.12963        0.403888        0        
C2        C        0.34375        0.185185        0.403888        0        
C3        C        0.3125        0.203703        0.403888        0        
C4        C        0.34375        0.148148        0.403888        0        
C1        C        0.3125        0.240741        0.403888        0        
C2        C        0.34375        0.296297        0.403888        0        
C3        C        0.3125        0.314815        0.403888        0        
C4        C        0.34375        0.259259        0.403888        0        
C1        C        0.3125        0.351852        0.403888        0        
C2        C        0.34375        0.407408        0.403888        0        
C3        C        0.3125        0.425925        0.403888        0        
C4        C        0.34375        0.37037        0.403888        0        
C1        C        0.3125        0.462963        0.403888        0        
C2        C        0.34375        0.518519        0.403888        0        
C3        C        0.3125        0.537037        0.403888        0        
C4        C        0.34375        0.481481        0.403888        0        
C1        C        0.3125        0.574075        0.403888        0        
C2        C        0.34375        0.62963        0.403888        0        
C3        C        0.3125        0.648148        0.403888        0        
C4        C        0.34375        0.592592        0.403888        0        
C1        C        0.375        0.018519        0.403888        0        
C2        C        0.40625        0.074075        0.403888        0        
C3        C        0.375        0.092592        0.403888        0        
C4        C        0.40625        0.037037        0.403888        0        
C1        C        0.375        0.12963        0.403888        0        
C2        C        0.40625        0.185185        0.403888        0        
C3        C        0.375        0.203703        0.403888        0        
C4        C        0.40625        0.148148        0.403888        0        
C1        C        0.375        0.240741        0.403888        0        
C2        C        0.40625        0.296297        0.403888        0        
C3        C        0.375        0.314815        0.403888        0        
C4        C        0.40625        0.259259        0.403888        0        
C1        C        0.375        0.351852        0.403888        0        
C2        C        0.40625        0.407408        0.403888        0        
C3        C        0.375        0.425925        0.403888        0        
C4        C        0.40625        0.37037        0.403888        0        
C1        C        0.375        0.462963        0.403888        0        
C2        C        0.40625        0.518519        0.403888        0        
C3        C        0.375        0.537037        0.403888        0        
C4        C        0.40625        0.481481        0.403888        0        
C1        C        0.375        0.574075        0.403888        0        
C2        C        0.40625        0.62963        0.403888        0        
C3        C        0.375        0.648148        0.403888        0        
C4        C        0.40625        0.592592        0.403888        0        
C1        C        0.4375        0.018519        0.403888        0        
C2        C        0.46875        0.074075        0.403888        0        
C3        C        0.4375        0.092592        0.403888        0        
C4        C        0.46875        0.037037        0.403888        0        
C1        C        0.4375        0.12963        0.403888        0        
C2        C        0.46875        0.185185        0.403888        0        
C3        C        0.4375        0.203703        0.403888        0        
C4        C        0.46875        0.148148        0.403888        0        
C1        C        0.4375        0.240741        0.403888        0        
C2        C        0.46875        0.296297        0.403888        0        
C3        C        0.4375        0.314815        0.403888        0        
C4        C        0.46875        0.259259        0.403888        0        
C1        C        0.4375        0.351852        0.403888        0        
C2        C        0.46875        0.407408        0.403888        0        
C3        C        0.4375        0.425925        0.403888        0        
C4        C        0.46875        0.37037        0.403888        0        
C1        C        0.4375        0.462963        0.403888        0        
C2        C        0.46875        0.518519        0.403888        0        
C3        C        0.4375        0.537037        0.403888        0        
C4        C        0.46875        0.481481        0.403888        0        
C1        C        0.4375        0.574075        0.403888        0        
C2        C        0.46875        0.62963        0.403888        0        
C3        C        0.4375        0.648148        0.403888        0        
C4        C        0.46875        0.592592        0.403888        0        
C1        C        0.5        0.018519        0.403888        0        
C2        C        0.53125        0.074075        0.403888        0        
C3        C        0.5        0.092592        0.403888        0        
C4        C        0.53125        0.037037        0.403888        0        
C1        C        0.5        0.12963        0.403888        0        
C2        C        0.53125        0.185185        0.403888        0        
C3        C        0.5        0.203703        0.403888        0        
C4        C        0.53125        0.148148        0.403888        0        
C1        C        0.5        0.240741        0.403888        0        
C2        C        0.53125        0.296297        0.403888        0        
C3        C        0.5        0.314815        0.403888        0        
C4        C        0.53125        0.259259        0.403888        0        
C1        C        0.5        0.351852        0.403888        0        
C2        C        0.53125        0.407408        0.403888        0        
C3        C        0.5        0.425925        0.403888        0        
C4        C        0.53125        0.37037        0.403888        0        
C1        C        0.5        0.462963        0.403888        0        
C2        C        0.53125        0.518519        0.403888        0        
C3        C        0.5        0.537037        0.403888        0        
C4        C        0.53125        0.481481        0.403888        0        
C1        C        0.5        0.574075        0.403888        0        
C2        C        0.53125        0.62963        0.403888        0        
C3        C        0.5        0.648148        0.403888        0        
C4        C        0.53125        0.592592        0.403888        0        
C1        C        0.5625        0.018519        0.403888        0        
C2        C        0.59375        0.074075        0.403888        0        
C3        C        0.5625        0.092592        0.403888        0        
C4        C        0.59375        0.037037        0.403888        0        
C1        C        0.5625        0.12963        0.403888        0        
C2        C        0.59375        0.185185        0.403888        0        
C3        C        0.5625        0.203703        0.403888        0        
C4        C        0.59375        0.148148        0.403888        0        
C1        C        0.5625        0.240741        0.403888        0        
C2        C        0.59375        0.296297        0.403888        0        
C3        C        0.5625        0.314815        0.403888        0        
C4        C        0.59375        0.259259        0.403888        0        
C1        C        0.5625        0.351852        0.403888        0        
C2        C        0.59375        0.407408        0.403888        0        
C3        C        0.5625        0.425925        0.403888        0        
C4        C        0.59375        0.37037        0.403888        0        
C1        C        0.5625        0.462963        0.403888        0        
C2        C        0.59375        0.518519        0.403888        0        
C3        C        0.5625        0.537037        0.403888        0        
C4        C        0.59375        0.481481        0.403888        0        
C1        C        0.5625        0.574075        0.403888        0        
C2        C        0.59375        0.62963        0.403888        0        
C3        C        0.5625        0.648148        0.403888        0        
C4        C        0.59375        0.592592        0.403888        0        
C1        C        0.625        0.018519        0.403888        0        
C2        C        0.65625        0.074075        0.403888        0        
C3        C        0.625        0.092592        0.403888        0        
C4        C        0.65625        0.037037        0.403888        0        
C1        C        0.625        0.12963        0.403888        0        
C2        C        0.65625        0.185185        0.403888        0        
C3        C        0.625        0.203703        0.403888        0        
C4        C        0.65625        0.148148        0.403888        0        
C1        C        0.625        0.240741        0.403888        0        
C2        C        0.65625        0.296297        0.403888        0        
C3        C        0.625        0.314815        0.403888        0        
C4        C        0.65625        0.259259        0.403888        0        
C1        C        0.625        0.351852        0.403888        0        
C2        C        0.65625        0.407408        0.403888        0        
C3        C        0.625        0.425925        0.403888        0        
C4        C        0.65625        0.37037        0.403888        0        
C1        C        0.625        0.462963        0.403888        0        
C2        C        0.65625        0.518519        0.403888        0        
C3        C        0.625        0.537037        0.403888        0        
C4        C        0.65625        0.481481        0.403888        0        
C1        C        0.625        0.574075        0.403888        0        
C2        C        0.65625        0.62963        0.403888        0        
C3        C        0.625        0.648148        0.403888        0        
C4        C        0.65625        0.592592        0.403888        0        
C1        C        0.6875        0.018519        0.403888        0        
C2        C        0.71875        0.074075        0.403888        0        
C3        C        0.6875        0.092592        0.403888        0        
C4        C        0.71875        0.037037        0.403888        0        
C1        C        0.6875        0.12963        0.403888        0        
C2        C        0.71875        0.185185        0.403888        0        
C3        C        0.6875        0.203703        0.403888        0        
C4        C        0.71875        0.148148        0.403888        0        
C1        C        0.6875        0.240741        0.403888        0        
C2        C        0.71875        0.296297        0.403888        0        
C3        C        0.6875        0.314815        0.403888        0        
C4        C        0.71875        0.259259        0.403888        0        
C1        C        0.6875        0.351852        0.403888        0        
C2        C        0.71875        0.407408        0.403888        0        
C3        C        0.6875        0.425925        0.403888        0        
C4        C        0.71875        0.37037        0.403888        0        
C1        C        0.6875        0.462963        0.403888        0        
C2        C        0.71875        0.518519        0.403888        0        
C3        C        0.6875        0.537037        0.403888        0        
C4        C        0.71875        0.481481        0.403888        0        
C1        C        0.6875        0.574075        0.403888        0        
C2        C        0.71875        0.62963        0.403888        0        
C3        C        0.6875        0.648148        0.403888        0        
C4        C        0.71875        0.592592        0.403888        0        
C1        C        0.75        0.018519        0.403888        0        
C2        C        0.78125        0.074075        0.403888        0        
C3        C        0.75        0.092592        0.403888        0        
C4        C        0.78125        0.037037        0.403888        0        
C1        C        0.75        0.12963        0.403888        0        
C2        C        0.78125        0.185185        0.403888        0        
C3        C        0.75        0.203703        0.403888        0        
C4        C        0.78125        0.148148        0.403888        0        
C1        C        0.75        0.240741        0.403888        0        
C2        C        0.78125        0.296297        0.403888        0        
C3        C        0.75        0.314815        0.403888        0        
C4        C        0.78125        0.259259        0.403888        0        
C1        C        0.75        0.351852        0.403888        0        
C2        C        0.78125        0.407408        0.403888        0        
C3        C        0.75        0.425925        0.403888        0        
C4        C        0.78125        0.37037        0.403888        0        
C1        C        0.75        0.462963        0.403888        0        
C2        C        0.78125        0.518519        0.403888        0        
C3        C        0.75        0.537037        0.403888        0        
C4        C        0.78125        0.481481        0.403888        0        
C1        C        0.75        0.574075        0.403888        0        
C2        C        0.78125        0.62963        0.403888        0        
C3        C        0.75        0.648148        0.403888        0        
C4        C        0.78125        0.592592        0.403888        0        
C1        C        0.8125        0.018519        0.403888        0        
C2        C        0.84375        0.074075        0.403888        0        
C3        C        0.8125        0.092592        0.403888        0        
C4        C        0.84375        0.037037        0.403888        0        
C1        C        0.8125        0.12963        0.403888        0        
C2        C        0.84375        0.185185        0.403888        0        
C3        C        0.8125        0.203703        0.403888        0        
C4        C        0.84375        0.148148        0.403888        0        
C1        C        0.8125        0.240741        0.403888        0        
C2        C        0.84375        0.296297        0.403888        0        
C3        C        0.8125        0.314815        0.403888        0        
C4        C        0.84375        0.259259        0.403888        0        
C1        C        0.8125        0.351852        0.403888        0        
C2        C        0.84375        0.407408        0.403888        0        
C3        C        0.8125        0.425925        0.403888        0        
C4        C        0.84375        0.37037        0.403888        0        
C1        C        0.8125        0.462963        0.403888        0        
C2        C        0.84375        0.518519        0.403888        0        
C3        C        0.8125        0.537037        0.403888        0        
C4        C        0.84375        0.481481        0.403888        0        
C1        C        0.8125        0.574075        0.403888        0        
C2        C        0.84375        0.62963        0.403888        0        
C3        C        0.8125        0.648148        0.403888        0        
C4        C        0.84375        0.592592        0.403888        0        
C1        C        0.875        0.018519        0.403888        0        
C2        C        0.90625        0.074075        0.403888        0        
C3        C        0.875        0.092592        0.403888        0        
C4        C        0.90625        0.037037        0.403888        0        
C1        C        0.875        0.12963        0.403888        0        
C2        C        0.90625        0.185185        0.403888        0        
C3        C        0.875        0.203703        0.403888        0        
C4        C        0.90625        0.148148        0.403888        0        
C1        C        0.875        0.240741        0.403888        0        
C2        C        0.90625        0.296297        0.403888        0        
C3        C        0.875        0.314815        0.403888        0        
C4        C        0.90625        0.259259        0.403888        0        
C1        C        0.875        0.351852        0.403888        0        
C2        C        0.90625        0.407408        0.403888        0        
C3        C        0.875        0.425925        0.403888        0        
C4        C        0.90625        0.37037        0.403888        0        
C1        C        0.875        0.462963        0.403888        0        
C2        C        0.90625        0.518519        0.403888        0        
C3        C        0.875        0.537037        0.403888        0        
C4        C        0.90625        0.481481        0.403888        0        
C1        C        0.875        0.574075        0.403888        0        
C2        C        0.90625        0.62963        0.403888        0        
C3        C        0.875        0.648148        0.403888        0        
C4        C        0.90625        0.592592        0.403888        0        
C1        C        0.9375        0.018519        0.403888        0        
C2        C        0.96875        0.074075        0.403888        0        
C3        C        0.9375        0.092592        0.403888        0        
C4        C        0.96875        0.037037        0.403888        0        
C1        C        0.9375        0.12963        0.403888        0        
C2        C        0.96875        0.185185        0.403888        0        
C3        C        0.9375        0.203703        0.403888        0        
C4        C        0.96875        0.148148        0.403888        0        
C1        C        0.9375        0.240741        0.403888        0        
C2        C        0.96875        0.296297        0.403888        0        
C3        C        0.9375        0.314815        0.403888        0        
C4        C        0.96875        0.259259        0.403888        0        
C1        C        0.9375        0.351852        0.403888        0        
C2        C        0.96875        0.407408        0.403888        0        
C3        C        0.9375        0.425925        0.403888        0        
C4        C        0.96875        0.37037        0.403888        0        
C1        C        0.9375        0.462963        0.403888        0        
C2        C        0.96875        0.518519        0.403888        0        
C3        C        0.9375        0.537037        0.403888        0        
C4        C        0.96875        0.481481        0.403888        0        
C1        C        0.9375        0.574075        0.403888        0        
C2        C        0.96875        0.62963        0.403888        0        
C3        C        0.9375        0.648148        0.403888        0        
C4        C        0.96875        0.592592        0.403888        0        
C1        C        0.0        0.685186        0.403888        0        
C1        C        0.0625        0.685186        0.403888        0        
C1        C        0.125        0.685186        0.403888        0        
C1        C        0.1875        0.685186        0.403888        0        
C1        C        0.25        0.685186        0.403888        0        
C1        C        0.3125        0.685186        0.403888        0        
C1        C        0.375        0.685186        0.403888        0        
C1        C        0.4375        0.685186        0.403888        0        
C1        C        0.5        0.685186        0.403888        0        
C1        C        0.5625        0.685186        0.403888        0        
C1        C        0.625        0.685186        0.403888        0        
C1        C        0.6875        0.685186        0.403888        0        
C1        C        0.75        0.685186        0.403888        0        
C1        C        0.8125        0.685186        0.403888        0        
C1        C        0.875        0.685186        0.403888        0        
C1        C        0.9375        0.685186        0.403888        0        
C2        C        0.03125        0.740741        0.403888        0        
C2        C        0.09375        0.740741        0.403888        0        
C2        C        0.15625        0.740741        0.403888        0        
C2        C        0.21875        0.740741        0.403888        0        
C2        C        0.28125        0.740741        0.403888        0        
C2        C        0.34375        0.740741        0.403888        0        
C2        C        0.40625        0.740741        0.403888        0        
C2        C        0.46875        0.740741        0.403888        0        
C2        C        0.53125        0.740741        0.403888        0        
C2        C        0.59375        0.740741        0.403888        0        
C2        C        0.65625        0.740741        0.403888        0        
C2        C        0.71875        0.740741        0.403888        0        
C2        C        0.78125        0.740741        0.403888        0        
C2        C        0.84375        0.740741        0.403888        0        
C2        C        0.90625        0.740741        0.403888        0        
C2        C        0.96875        0.740741        0.403888        0        
C3        C        0.0        0.759259        0.403888        0        
C3        C        0.0625        0.759259        0.403888        0        
C3        C        0.125        0.759259        0.403888        0        
C3        C        0.1875        0.759259        0.403888        0        
C3        C        0.25        0.759259        0.403888        0        
C3        C        0.3125        0.759259        0.403888        0        
C3        C        0.375        0.759259        0.403888        0        
C3        C        0.4375        0.759259        0.403888        0        
C3        C        0.5        0.759259        0.403888        0        
C3        C        0.5625        0.759259        0.403888        0        
C3        C        0.625        0.759259        0.403888        0        
C3        C        0.6875        0.759259        0.403888        0        
C3        C        0.75        0.759259        0.403888        0        
C3        C        0.8125        0.759259        0.403888        0        
C3        C        0.875        0.759259        0.403888        0        
C3        C        0.9375        0.759259        0.403888        0        
C4        C        0.03125        0.703703        0.403888        0        
C4        C        0.09375        0.703703        0.403888        0        
C4        C        0.15625        0.703703        0.403888        0        
C4        C        0.21875        0.703703        0.403888        0        
C4        C        0.28125        0.703703        0.403888        0        
C4        C        0.34375        0.703703        0.403888        0        
C4        C        0.40625        0.703703        0.403888        0        
C4        C        0.46875        0.703703        0.403888        0        
C4        C        0.53125        0.703703        0.403888        0        
C4        C        0.59375        0.703703        0.403888        0        
C4        C        0.65625        0.703703        0.403888        0        
C4        C        0.71875        0.703703        0.403888        0        
C4        C        0.78125        0.703703        0.403888        0        
C4        C        0.84375        0.703703        0.403888        0        
C4        C        0.90625        0.703703        0.403888        0        
C4        C        0.96875        0.703703        0.403888        0        
C1        C        0.0        0.796297        0.403888        0        
C1        C        0.0625        0.796297        0.403888        0        
C1        C        0.125        0.796297        0.403888        0        
C1        C        0.1875        0.796297        0.403888        0        
C1        C        0.25        0.796297        0.403888        0        
C1        C        0.3125        0.796297        0.403888        0        
C1        C        0.375        0.796297        0.403888        0        
C1        C        0.4375        0.796297        0.403888        0        
C1        C        0.5        0.796297        0.403888        0        
C1        C        0.5625        0.796297        0.403888        0        
C1        C        0.625        0.796297        0.403888        0        
C1        C        0.6875        0.796297        0.403888        0        
C1        C        0.75        0.796297        0.403888        0        
C1        C        0.8125        0.796297        0.403888        0        
C1        C        0.875        0.796297        0.403888        0        
C1        C        0.9375        0.796297        0.403888        0        
C2        C        0.03125        0.851852        0.403888        0        
C2        C        0.09375        0.851852        0.403888        0        
C2        C        0.15625        0.851852        0.403888        0        
C2        C        0.21875        0.851852        0.403888        0        
C2        C        0.28125        0.851852        0.403888        0        
C2        C        0.34375        0.851852        0.403888        0        
C2        C        0.40625        0.851852        0.403888        0        
C2        C        0.46875        0.851852        0.403888        0        
C2        C        0.53125        0.851852        0.403888        0        
C2        C        0.59375        0.851852        0.403888        0        
C2        C        0.65625        0.851852        0.403888        0        
C2        C        0.71875        0.851852        0.403888        0        
C2        C        0.78125        0.851852        0.403888        0        
C2        C        0.84375        0.851852        0.403888        0        
C2        C        0.90625        0.851852        0.403888        0        
C2        C        0.96875        0.851852        0.403888        0        
C3        C        0.0        0.87037        0.403888        0        
C3        C        0.0625        0.87037        0.403888        0        
C3        C        0.125        0.87037        0.403888        0        
C3        C        0.1875        0.87037        0.403888        0        
C3        C        0.25        0.87037        0.403888        0        
C3        C        0.3125        0.87037        0.403888        0        
C3        C        0.375        0.87037        0.403888        0        
C3        C        0.4375        0.87037        0.403888        0        
C3        C        0.5        0.87037        0.403888        0        
C3        C        0.5625        0.87037        0.403888        0        
C3        C        0.625        0.87037        0.403888        0        
C3        C        0.6875        0.87037        0.403888        0        
C3        C        0.75        0.87037        0.403888        0        
C3        C        0.8125        0.87037        0.403888        0        
C3        C        0.875        0.87037        0.403888        0        
C3        C        0.9375        0.87037        0.403888        0        
C4        C        0.03125        0.814814        0.403888        0        
C4        C        0.09375        0.814814        0.403888        0        
C4        C        0.15625        0.814814        0.403888        0        
C4        C        0.21875        0.814814        0.403888        0        
C4        C        0.28125        0.814814        0.403888        0        
C4        C        0.34375        0.814814        0.403888        0        
C4        C        0.40625        0.814814        0.403888        0        
C4        C        0.46875        0.814814        0.403888        0        
C4        C        0.53125        0.814814        0.403888        0        
C4        C        0.59375        0.814814        0.403888        0        
C4        C        0.65625        0.814814        0.403888        0        
C4        C        0.71875        0.814814        0.403888        0        
C4        C        0.78125        0.814814        0.403888        0        
C4        C        0.84375        0.814814        0.403888        0        
C4        C        0.90625        0.814814        0.403888        0        
C4        C        0.96875        0.814814        0.403888        0        
C1        C        0.0        0.907408        0.403888        0        
C1        C        0.0625        0.907408        0.403888        0        
C1        C        0.125        0.907408        0.403888        0        
C1        C        0.1875        0.907408        0.403888        0        
C1        C        0.25        0.907408        0.403888        0        
C1        C        0.3125        0.907408        0.403888        0        
C1        C        0.375        0.907408        0.403888        0        
C1        C        0.4375        0.907408        0.403888        0        
C1        C        0.5        0.907408        0.403888        0        
C1        C        0.5625        0.907408        0.403888        0        
C1        C        0.625        0.907408        0.403888        0        
C1        C        0.6875        0.907408        0.403888        0        
C1        C        0.75        0.907408        0.403888        0        
C1        C        0.8125        0.907408        0.403888        0        
C1        C        0.875        0.907408        0.403888        0        
C1        C        0.9375        0.907408        0.403888        0        
C2        C        0.03125        0.962963        0.403888        0        
C2        C        0.09375        0.962963        0.403888        0        
C2        C        0.15625        0.962963        0.403888        0        
C2        C        0.21875        0.962963        0.403888        0        
C2        C        0.28125        0.962963        0.403888        0        
C2        C        0.34375        0.962963        0.403888        0        
C2        C        0.40625        0.962963        0.403888        0        
C2        C        0.46875        0.962963        0.403888        0        
C2        C        0.53125        0.962963        0.403888        0        
C2        C        0.59375        0.962963        0.403888        0        
C2        C        0.65625        0.962963        0.403888        0        
C2        C        0.71875        0.962963        0.403888        0        
C2        C        0.78125        0.962963        0.403888        0        
C2        C        0.84375        0.962963        0.403888        0        
C2        C        0.90625        0.962963        0.403888        0        
C2        C        0.96875        0.962963        0.403888        0        
C3        C        0.0        0.981481        0.403888        0        
C3        C        0.0625        0.981481        0.403888        0        
C3        C        0.125        0.981481        0.403888        0        
C3        C        0.1875        0.981481        0.403888        0        
C3        C        0.25        0.981481        0.403888        0        
C3        C        0.3125        0.981481        0.403888        0        
C3        C        0.375        0.981481        0.403888        0        
C3        C        0.4375        0.981481        0.403888        0        
C3        C        0.5        0.981481        0.403888        0        
C3        C        0.5625        0.981481        0.403888        0        
C3        C        0.625        0.981481        0.403888        0        
C3        C        0.6875        0.981481        0.403888        0        
C3        C        0.75        0.981481        0.403888        0        
C3        C        0.8125        0.981481        0.403888        0        
C3        C        0.875        0.981481        0.403888        0        
C3        C        0.9375        0.981481        0.403888        0        
C4        C        0.03125        0.925925        0.403888        0        
C4        C        0.09375        0.925925        0.403888        0        
C4        C        0.15625        0.925925        0.403888        0        
C4        C        0.21875        0.925925        0.403888        0        
C4        C        0.28125        0.925925        0.403888        0        
C4        C        0.34375        0.925925        0.403888        0        
C4        C        0.40625        0.925925        0.403888        0        
C4        C        0.46875        0.925925        0.403888        0        
C4        C        0.53125        0.925925        0.403888        0        
C4        C        0.59375        0.925925        0.403888        0        
C4        C        0.65625        0.925925        0.403888        0        
C4        C        0.71875        0.925925        0.403888        0        
C4        C        0.78125        0.925925        0.403888        0        
C4        C        0.84375        0.925925        0.403888        0        
C4        C        0.90625        0.925925        0.403888        0        
C4        C        0.96875        0.925925        0.403888        0        
C1        C        0.0        0.018519        0.596113        0        
C2        C        0.03125        0.074075        0.596113        0        
C3        C        0.0        0.092592        0.596113        0        
C4        C        0.03125        0.037037        0.596113        0        
C1        C        0.0        0.12963        0.596113        0        
C2        C        0.03125        0.185185        0.596113        0        
C3        C        0.0        0.203703        0.596113        0        
C4        C        0.03125        0.148148        0.596113        0        
C1        C        0.0        0.240741        0.596113        0        
C2        C        0.03125        0.296297        0.596113        0        
C3        C        0.0        0.314815        0.596113        0        
C4        C        0.03125        0.259259        0.596113        0        
C1        C        0.0        0.351852        0.596113        0        
C2        C        0.03125        0.407408        0.596113        0        
C3        C        0.0        0.425925        0.596113        0        
C4        C        0.03125        0.37037        0.596113        0        
C1        C        0.0        0.462963        0.596113        0        
C2        C        0.03125        0.518519        0.596113        0        
C3        C        0.0        0.537037        0.596113        0        
C4        C        0.03125        0.481481        0.596113        0        
C1        C        0.0        0.574075        0.596113        0        
C2        C        0.03125        0.62963        0.596113        0        
C3        C        0.0        0.648148        0.596113        0        
C4        C        0.03125        0.592592        0.596113        0        
C1        C        0.0625        0.018519        0.596113        0        
C2        C        0.09375        0.074075        0.596113        0        
C3        C        0.0625        0.092592        0.596113        0        
C4        C        0.09375        0.037037        0.596113        0        
C1        C        0.0625        0.12963        0.596113        0        
C2        C        0.09375        0.185185        0.596113        0        
C3        C        0.0625        0.203703        0.596113        0        
C4        C        0.09375        0.148148        0.596113        0        
C1        C        0.0625        0.240741        0.596113        0        
C2        C        0.09375        0.296297        0.596113        0        
C3        C        0.0625        0.314815        0.596113        0        
C4        C        0.09375        0.259259        0.596113        0        
C1        C        0.0625        0.351852        0.596113        0        
C2        C        0.09375        0.407408        0.596113        0        
C3        C        0.0625        0.425925        0.596113        0        
C4        C        0.09375        0.37037        0.596113        0        
C1        C        0.0625        0.462963        0.596113        0        
C2        C        0.09375        0.518519        0.596113        0        
C3        C        0.0625        0.537037        0.596113        0        
C4        C        0.09375        0.481481        0.596113        0        
C1        C        0.0625        0.574075        0.596113        0        
C2        C        0.09375        0.62963        0.596113        0        
C3        C        0.0625        0.648148        0.596113        0        
C4        C        0.09375        0.592592        0.596113        0        
C1        C        0.125        0.018519        0.596113        0        
C2        C        0.15625        0.074075        0.596113        0        
C3        C        0.125        0.092592        0.596113        0        
C4        C        0.15625        0.037037        0.596113        0        
C1        C        0.125        0.12963        0.596113        0        
C2        C        0.15625        0.185185        0.596113        0        
C3        C        0.125        0.203703        0.596113        0        
C4        C        0.15625        0.148148        0.596113        0        
C1        C        0.125        0.240741        0.596113        0        
C2        C        0.15625        0.296297        0.596113        0        
C3        C        0.125        0.314815        0.596113        0        
C4        C        0.15625        0.259259        0.596113        0        
C1        C        0.125        0.351852        0.596113        0        
C2        C        0.15625        0.407408        0.596113        0        
C3        C        0.125        0.425925        0.596113        0        
C4        C        0.15625        0.37037        0.596113        0        
C1        C        0.125        0.462963        0.596113        0        
C2        C        0.15625        0.518519        0.596113        0        
C3        C        0.125        0.537037        0.596113        0        
C4        C        0.15625        0.481481        0.596113        0        
C1        C        0.125        0.574075        0.596113        0        
C2        C        0.15625        0.62963        0.596113        0        
C3        C        0.125        0.648148        0.596113        0        
C4        C        0.15625        0.592592        0.596113        0        
C1        C        0.1875        0.018519        0.596113        0        
C2        C        0.21875        0.074075        0.596113        0        
C3        C        0.1875        0.092592        0.596113        0        
C4        C        0.21875        0.037037        0.596113        0        
C1        C        0.1875        0.12963        0.596113        0        
C2        C        0.21875        0.185185        0.596113        0        
C3        C        0.1875        0.203703        0.596113        0        
C4        C        0.21875        0.148148        0.596113        0        
C1        C        0.1875        0.240741        0.596113        0        
C2        C        0.21875        0.296297        0.596113        0        
C3        C        0.1875        0.314815        0.596113        0        
C4        C        0.21875        0.259259        0.596113        0        
C1        C        0.1875        0.351852        0.596113        0        
C2        C        0.21875        0.407408        0.596113        0        
C3        C        0.1875        0.425925        0.596113        0        
C4        C        0.21875        0.37037        0.596113        0        
C1        C        0.1875        0.462963        0.596113        0        
C2        C        0.21875        0.518519        0.596113        0        
C3        C        0.1875        0.537037        0.596113        0        
C4        C        0.21875        0.481481        0.596113        0        
C1        C        0.1875        0.574075        0.596113        0        
C2        C        0.21875        0.62963        0.596113        0        
C3        C        0.1875        0.648148        0.596113        0        
C4        C        0.21875        0.592592        0.596113        0        
C1        C        0.25        0.018519        0.596113        0        
C2        C        0.28125        0.074075        0.596113        0        
C3        C        0.25        0.092592        0.596113        0        
C4        C        0.28125        0.037037        0.596113        0        
C1        C        0.25        0.12963        0.596113        0        
C2        C        0.28125        0.185185        0.596113        0        
C3        C        0.25        0.203703        0.596113        0        
C4        C        0.28125        0.148148        0.596113        0        
C1        C        0.25        0.240741        0.596113        0        
C2        C        0.28125        0.296297        0.596113        0        
C3        C        0.25        0.314815        0.596113        0        
C4        C        0.28125        0.259259        0.596113        0        
C1        C        0.25        0.351852        0.596113        0        
C2        C        0.28125        0.407408        0.596113        0        
C3        C        0.25        0.425925        0.596113        0        
C4        C        0.28125        0.37037        0.596113        0        
C1        C        0.25        0.462963        0.596113        0        
C2        C        0.28125        0.518519        0.596113        0        
C3        C        0.25        0.537037        0.596113        0        
C4        C        0.28125        0.481481        0.596113        0        
C1        C        0.25        0.574075        0.596113        0        
C2        C        0.28125        0.62963        0.596113        0        
C3        C        0.25        0.648148        0.596113        0        
C4        C        0.28125        0.592592        0.596113        0        
C1        C        0.3125        0.018519        0.596113        0        
C2        C        0.34375        0.074075        0.596113        0        
C3        C        0.3125        0.092592        0.596113        0        
C4        C        0.34375        0.037037        0.596113        0        
C1        C        0.3125        0.12963        0.596113        0        
C2        C        0.34375        0.185185        0.596113        0        
C3        C        0.3125        0.203703        0.596113        0        
C4        C        0.34375        0.148148        0.596113        0        
C1        C        0.3125        0.240741        0.596113        0        
C2        C        0.34375        0.296297        0.596113        0        
C3        C        0.3125        0.314815        0.596113        0        
C4        C        0.34375        0.259259        0.596113        0        
C1        C        0.3125        0.351852        0.596113        0        
C2        C        0.34375        0.407408        0.596113        0        
C3        C        0.3125        0.425925        0.596113        0        
C4        C        0.34375        0.37037        0.596113        0        
C1        C        0.3125        0.462963        0.596113        0        
C2        C        0.34375        0.518519        0.596113        0        
C3        C        0.3125        0.537037        0.596113        0        
C4        C        0.34375        0.481481        0.596113        0        
C1        C        0.3125        0.574075        0.596113        0        
C2        C        0.34375        0.62963        0.596113        0        
C3        C        0.3125        0.648148        0.596113        0        
C4        C        0.34375        0.592592        0.596113        0        
C1        C        0.375        0.018519        0.596113        0        
C2        C        0.40625        0.074075        0.596113        0        
C3        C        0.375        0.092592        0.596113        0        
C4        C        0.40625        0.037037        0.596113        0        
C1        C        0.375        0.12963        0.596113        0        
C2        C        0.40625        0.185185        0.596113        0        
C3        C        0.375        0.203703        0.596113        0        
C4        C        0.40625        0.148148        0.596113        0        
C1        C        0.375        0.240741        0.596113        0        
C2        C        0.40625        0.296297        0.596113        0        
C3        C        0.375        0.314815        0.596113        0        
C4        C        0.40625        0.259259        0.596113        0        
C1        C        0.375        0.351852        0.596113        0        
C2        C        0.40625        0.407408        0.596113        0        
C3        C        0.375        0.425925        0.596113        0        
C4        C        0.40625        0.37037        0.596113        0        
C1        C        0.375        0.462963        0.596113        0        
C2        C        0.40625        0.518519        0.596113        0        
C3        C        0.375        0.537037        0.596113        0        
C4        C        0.40625        0.481481        0.596113        0        
C1        C        0.375        0.574075        0.596113        0        
C2        C        0.40625        0.62963        0.596113        0        
C3        C        0.375        0.648148        0.596113        0        
C4        C        0.40625        0.592592        0.596113        0        
C1        C        0.4375        0.018519        0.596113        0        
C2        C        0.46875        0.074075        0.596113        0        
C3        C        0.4375        0.092592        0.596113        0        
C4        C        0.46875        0.037037        0.596113        0        
C1        C        0.4375        0.12963        0.596113        0        
C2        C        0.46875        0.185185        0.596113        0        
C3        C        0.4375        0.203703        0.596113        0        
C4        C        0.46875        0.148148        0.596113        0        
C1        C        0.4375        0.240741        0.596113        0        
C2        C        0.46875        0.296297        0.596113        0        
C3        C        0.4375        0.314815        0.596113        0        
C4        C        0.46875        0.259259        0.596113        0        
C1        C        0.4375        0.351852        0.596113        0        
C2        C        0.46875        0.407408        0.596113        0        
C3        C        0.4375        0.425925        0.596113        0        
C4        C        0.46875        0.37037        0.596113        0        
C1        C        0.4375        0.462963        0.596113        0        
C2        C        0.46875        0.518519        0.596113        0        
C3        C        0.4375        0.537037        0.596113        0        
C4        C        0.46875        0.481481        0.596113        0        
C1        C        0.4375        0.574075        0.596113        0        
C2        C        0.46875        0.62963        0.596113        0        
C3        C        0.4375        0.648148        0.596113        0        
C4        C        0.46875        0.592592        0.596113        0        
C1        C        0.5        0.018519        0.596113        0        
C2        C        0.53125        0.074075        0.596113        0        
C3        C        0.5        0.092592        0.596113        0        
C4        C        0.53125        0.037037        0.596113        0        
C1        C        0.5        0.12963        0.596113        0        
C2        C        0.53125        0.185185        0.596113        0        
C3        C        0.5        0.203703        0.596113        0        
C4        C        0.53125        0.148148        0.596113        0        
C1        C        0.5        0.240741        0.596113        0        
C2        C        0.53125        0.296297        0.596113        0        
C3        C        0.5        0.314815        0.596113        0        
C4        C        0.53125        0.259259        0.596113        0        
C1        C        0.5        0.351852        0.596113        0        
C2        C        0.53125        0.407408        0.596113        0        
C3        C        0.5        0.425925        0.596113        0        
C4        C        0.53125        0.37037        0.596113        0        
C1        C        0.5        0.462963        0.596113        0        
C2        C        0.53125        0.518519        0.596113        0        
C3        C        0.5        0.537037        0.596113        0        
C4        C        0.53125        0.481481        0.596113        0        
C1        C        0.5        0.574075        0.596113        0        
C2        C        0.53125        0.62963        0.596113        0        
C3        C        0.5        0.648148        0.596113        0        
C4        C        0.53125        0.592592        0.596113        0        
C1        C        0.5625        0.018519        0.596113        0        
C2        C        0.59375        0.074075        0.596113        0        
C3        C        0.5625        0.092592        0.596113        0        
C4        C        0.59375        0.037037        0.596113        0        
C1        C        0.5625        0.12963        0.596113        0        
C2        C        0.59375        0.185185        0.596113        0        
C3        C        0.5625        0.203703        0.596113        0        
C4        C        0.59375        0.148148        0.596113        0        
C1        C        0.5625        0.240741        0.596113        0        
C2        C        0.59375        0.296297        0.596113        0        
C3        C        0.5625        0.314815        0.596113        0        
C4        C        0.59375        0.259259        0.596113        0        
C1        C        0.5625        0.351852        0.596113        0        
C2        C        0.59375        0.407408        0.596113        0        
C3        C        0.5625        0.425925        0.596113        0        
C4        C        0.59375        0.37037        0.596113        0        
C1        C        0.5625        0.462963        0.596113        0        
C2        C        0.59375        0.518519        0.596113        0        
C3        C        0.5625        0.537037        0.596113        0        
C4        C        0.59375        0.481481        0.596113        0        
C1        C        0.5625        0.574075        0.596113        0        
C2        C        0.59375        0.62963        0.596113        0        
C3        C        0.5625        0.648148        0.596113        0        
C4        C        0.59375        0.592592        0.596113        0        
C1        C        0.625        0.018519        0.596113        0        
C2        C        0.65625        0.074075        0.596113        0        
C3        C        0.625        0.092592        0.596113        0        
C4        C        0.65625        0.037037        0.596113        0        
C1        C        0.625        0.12963        0.596113        0        
C2        C        0.65625        0.185185        0.596113        0        
C3        C        0.625        0.203703        0.596113        0        
C4        C        0.65625        0.148148        0.596113        0        
C1        C        0.625        0.240741        0.596113        0        
C2        C        0.65625        0.296297        0.596113        0        
C3        C        0.625        0.314815        0.596113        0        
C4        C        0.65625        0.259259        0.596113        0        
C1        C        0.625        0.351852        0.596113        0        
C2        C        0.65625        0.407408        0.596113        0        
C3        C        0.625        0.425925        0.596113        0        
C4        C        0.65625        0.37037        0.596113        0        
C1        C        0.625        0.462963        0.596113        0        
C2        C        0.65625        0.518519        0.596113        0        
C3        C        0.625        0.537037        0.596113        0        
C4        C        0.65625        0.481481        0.596113        0        
C1        C        0.625        0.574075        0.596113        0        
C2        C        0.65625        0.62963        0.596113        0        
C3        C        0.625        0.648148        0.596113        0        
C4        C        0.65625        0.592592        0.596113        0        
C1        C        0.6875        0.018519        0.596113        0        
C2        C        0.71875        0.074075        0.596113        0        
C3        C        0.6875        0.092592        0.596113        0        
C4        C        0.71875        0.037037        0.596113        0        
C1        C        0.6875        0.12963        0.596113        0        
C2        C        0.71875        0.185185        0.596113        0        
C3        C        0.6875        0.203703        0.596113        0        
C4        C        0.71875        0.148148        0.596113        0        
C1        C        0.6875        0.240741        0.596113        0        
C2        C        0.71875        0.296297        0.596113        0        
C3        C        0.6875        0.314815        0.596113        0        
C4        C        0.71875        0.259259        0.596113        0        
C1        C        0.6875        0.351852        0.596113        0        
C2        C        0.71875        0.407408        0.596113        0        
C3        C        0.6875        0.425925        0.596113        0        
C4        C        0.71875        0.37037        0.596113        0        
C1        C        0.6875        0.462963        0.596113        0        
C2        C        0.71875        0.518519        0.596113        0        
C3        C        0.6875        0.537037        0.596113        0        
C4        C        0.71875        0.481481        0.596113        0        
C1        C        0.6875        0.574075        0.596113        0        
C2        C        0.71875        0.62963        0.596113        0        
C3        C        0.6875        0.648148        0.596113        0        
C4        C        0.71875        0.592592        0.596113        0        
C1        C        0.75        0.018519        0.596113        0        
C2        C        0.78125        0.074075        0.596113        0        
C3        C        0.75        0.092592        0.596113        0        
C4        C        0.78125        0.037037        0.596113        0        
C1        C        0.75        0.12963        0.596113        0        
C2        C        0.78125        0.185185        0.596113        0        
C3        C        0.75        0.203703        0.596113        0        
C4        C        0.78125        0.148148        0.596113        0        
C1        C        0.75        0.240741        0.596113        0        
C2        C        0.78125        0.296297        0.596113        0        
C3        C        0.75        0.314815        0.596113        0        
C4        C        0.78125        0.259259        0.596113        0        
C1        C        0.75        0.351852        0.596113        0        
C2        C        0.78125        0.407408        0.596113        0        
C3        C        0.75        0.425925        0.596113        0        
C4        C        0.78125        0.37037        0.596113        0        
C1        C        0.75        0.462963        0.596113        0        
C2        C        0.78125        0.518519        0.596113        0        
C3        C        0.75        0.537037        0.596113        0        
C4        C        0.78125        0.481481        0.596113        0        
C1        C        0.75        0.574075        0.596113        0        
C2        C        0.78125        0.62963        0.596113        0        
C3        C        0.75        0.648148        0.596113        0        
C4        C        0.78125        0.592592        0.596113        0        
C1        C        0.8125        0.018519        0.596113        0        
C2        C        0.84375        0.074075        0.596113        0        
C3        C        0.8125        0.092592        0.596113        0        
C4        C        0.84375        0.037037        0.596113        0        
C1        C        0.8125        0.12963        0.596113        0        
C2        C        0.84375        0.185185        0.596113        0        
C3        C        0.8125        0.203703        0.596113        0        
C4        C        0.84375        0.148148        0.596113        0        
C1        C        0.8125        0.240741        0.596113        0        
C2        C        0.84375        0.296297        0.596113        0        
C3        C        0.8125        0.314815        0.596113        0        
C4        C        0.84375        0.259259        0.596113        0        
C1        C        0.8125        0.351852        0.596113        0        
C2        C        0.84375        0.407408        0.596113        0        
C3        C        0.8125        0.425925        0.596113        0        
C4        C        0.84375        0.37037        0.596113        0        
C1        C        0.8125        0.462963        0.596113        0        
C2        C        0.84375        0.518519        0.596113        0        
C3        C        0.8125        0.537037        0.596113        0        
C4        C        0.84375        0.481481        0.596113        0        
C1        C        0.8125        0.574075        0.596113        0        
C2        C        0.84375        0.62963        0.596113        0        
C3        C        0.8125        0.648148        0.596113        0        
C4        C        0.84375        0.592592        0.596113        0        
C1        C        0.875        0.018519        0.596113        0        
C2        C        0.90625        0.074075        0.596113        0        
C3        C        0.875        0.092592        0.596113        0        
C4        C        0.90625        0.037037        0.596113        0        
C1        C        0.875        0.12963        0.596113        0        
C2        C        0.90625        0.185185        0.596113        0        
C3        C        0.875        0.203703        0.596113        0        
C4        C        0.90625        0.148148        0.596113        0        
C1        C        0.875        0.240741        0.596113        0        
C2        C        0.90625        0.296297        0.596113        0        
C3        C        0.875        0.314815        0.596113        0        
C4        C        0.90625        0.259259        0.596113        0        
C1        C        0.875        0.351852        0.596113        0        
C2        C        0.90625        0.407408        0.596113        0        
C3        C        0.875        0.425925        0.596113        0        
C4        C        0.90625        0.37037        0.596113        0        
C1        C        0.875        0.462963        0.596113        0        
C2        C        0.90625        0.518519        0.596113        0        
C3        C        0.875        0.537037        0.596113        0        
C4        C        0.90625        0.481481        0.596113        0        
C1        C        0.875        0.574075        0.596113        0        
C2        C        0.90625        0.62963        0.596113        0        
C3        C        0.875        0.648148        0.596113        0        
C4        C        0.90625        0.592592        0.596113        0        
C1        C        0.9375        0.018519        0.596113        0        
C2        C        0.96875        0.074075        0.596113        0        
C3        C        0.9375        0.092592        0.596113        0        
C4        C        0.96875        0.037037        0.596113        0        
C1        C        0.9375        0.12963        0.596113        0        
C2        C        0.96875        0.185185        0.596113        0        
C3        C        0.9375        0.203703        0.596113        0        
C4        C        0.96875        0.148148        0.596113        0        
C1        C        0.9375        0.240741        0.596113        0        
C2        C        0.96875        0.296297        0.596113        0        
C3        C        0.9375        0.314815        0.596113        0        
C4        C        0.96875        0.259259        0.596113        0        
C1        C        0.9375        0.351852        0.596113        0        
C2        C        0.96875        0.407408        0.596113        0        
C3        C        0.9375        0.425925        0.596113        0        
C4        C        0.96875        0.37037        0.596113        0        
C1        C        0.9375        0.462963        0.596113        0        
C2        C        0.96875        0.518519        0.596113        0        
C3        C        0.9375        0.537037        0.596113        0        
C4        C        0.96875        0.481481        0.596113        0        
C1        C        0.9375        0.574075        0.596113        0        
C2        C        0.96875        0.62963        0.596113        0        
C3        C        0.9375        0.648148        0.596113        0        
C4        C        0.96875        0.592592        0.596113        0        
C1        C        0.0        0.685186        0.596113        0        
C1        C        0.0625        0.685186        0.596113        0        
C1        C        0.125        0.685186        0.596113        0        
C1        C        0.1875        0.685186        0.596113        0        
C1        C        0.25        0.685186        0.596113        0        
C1        C        0.3125        0.685186        0.596113        0        
C1        C        0.375        0.685186        0.596113        0        
C1        C        0.4375        0.685186        0.596113        0        
C1        C        0.5        0.685186        0.596113        0        
C1        C        0.5625        0.685186        0.596113        0        
C1        C        0.625        0.685186        0.596113        0        
C1        C        0.6875        0.685186        0.596113        0        
C1        C        0.75        0.685186        0.596113        0        
C1        C        0.8125        0.685186        0.596113        0        
C1        C        0.875        0.685186        0.596113        0        
C1        C        0.9375        0.685186        0.596113        0        
C2        C        0.03125        0.740741        0.596113        0        
C2        C        0.09375        0.740741        0.596113        0        
C2        C        0.15625        0.740741        0.596113        0        
C2        C        0.21875        0.740741        0.596113        0        
C2        C        0.28125        0.740741        0.596113        0        
C2        C        0.34375        0.740741        0.596113        0        
C2        C        0.40625        0.740741        0.596113        0        
C2        C        0.46875        0.740741        0.596113        0        
C2        C        0.53125        0.740741        0.596113        0        
C2        C        0.59375        0.740741        0.596113        0        
C2        C        0.65625        0.740741        0.596113        0        
C2        C        0.71875        0.740741        0.596113        0        
C2        C        0.78125        0.740741        0.596113        0        
C2        C        0.84375        0.740741        0.596113        0        
C2        C        0.90625        0.740741        0.596113        0        
C2        C        0.96875        0.740741        0.596113        0        
C3        C        0.0        0.759259        0.596113        0        
C3        C        0.0625        0.759259        0.596113        0        
C3        C        0.125        0.759259        0.596113        0        
C3        C        0.1875        0.759259        0.596113        0        
C3        C        0.25        0.759259        0.596113        0        
C3        C        0.3125        0.759259        0.596113        0        
C3        C        0.375        0.759259        0.596113        0        
C3        C        0.4375        0.759259        0.596113        0        
C3        C        0.5        0.759259        0.596113        0        
C3        C        0.5625        0.759259        0.596113        0        
C3        C        0.625        0.759259        0.596113        0        
C3        C        0.6875        0.759259        0.596113        0        
C3        C        0.75        0.759259        0.596113        0        
C3        C        0.8125        0.759259        0.596113        0        
C3        C        0.875        0.759259        0.596113        0        
C3        C        0.9375        0.759259        0.596113        0        
C4        C        0.03125        0.703703        0.596113        0        
C4        C        0.09375        0.703703        0.596113        0        
C4        C        0.15625        0.703703        0.596113        0        
C4        C        0.21875        0.703703        0.596113        0        
C4        C        0.28125        0.703703        0.596113        0        
C4        C        0.34375        0.703703        0.596113        0        
C4        C        0.40625        0.703703        0.596113        0        
C4        C        0.46875        0.703703        0.596113        0        
C4        C        0.53125        0.703703        0.596113        0        
C4        C        0.59375        0.703703        0.596113        0        
C4        C        0.65625        0.703703        0.596113        0        
C4        C        0.71875        0.703703        0.596113        0        
C4        C        0.78125        0.703703        0.596113        0        
C4        C        0.84375        0.703703        0.596113        0        
C4        C        0.90625        0.703703        0.596113        0        
C4        C        0.96875        0.703703        0.596113        0        
C1        C        0.0        0.796297        0.596113        0        
C1        C        0.0625        0.796297        0.596113        0        
C1        C        0.125        0.796297        0.596113        0        
C1        C        0.1875        0.796297        0.596113        0        
C1        C        0.25        0.796297        0.596113        0        
C1        C        0.3125        0.796297        0.596113        0        
C1        C        0.375        0.796297        0.596113        0        
C1        C        0.4375        0.796297        0.596113        0        
C1        C        0.5        0.796297        0.596113        0        
C1        C        0.5625        0.796297        0.596113        0        
C1        C        0.625        0.796297        0.596113        0        
C1        C        0.6875        0.796297        0.596113        0        
C1        C        0.75        0.796297        0.596113        0        
C1        C        0.8125        0.796297        0.596113        0        
C1        C        0.875        0.796297        0.596113        0        
C1        C        0.9375        0.796297        0.596113        0        
C2        C        0.03125        0.851852        0.596113        0        
C2        C        0.09375        0.851852        0.596113        0        
C2        C        0.15625        0.851852        0.596113        0        
C2        C        0.21875        0.851852        0.596113        0        
C2        C        0.28125        0.851852        0.596113        0        
C2        C        0.34375        0.851852        0.596113        0        
C2        C        0.40625        0.851852        0.596113        0        
C2        C        0.46875        0.851852        0.596113        0        
C2        C        0.53125        0.851852        0.596113        0        
C2        C        0.59375        0.851852        0.596113        0        
C2        C        0.65625        0.851852        0.596113        0        
C2        C        0.71875        0.851852        0.596113        0        
C2        C        0.78125        0.851852        0.596113        0        
C2        C        0.84375        0.851852        0.596113        0        
C2        C        0.90625        0.851852        0.596113        0        
C2        C        0.96875        0.851852        0.596113        0        
C3        C        0.0        0.87037        0.596113        0        
C3        C        0.0625        0.87037        0.596113        0        
C3        C        0.125        0.87037        0.596113        0        
C3        C        0.1875        0.87037        0.596113        0        
C3        C        0.25        0.87037        0.596113        0        
C3        C        0.3125        0.87037        0.596113        0        
C3        C        0.375        0.87037        0.596113        0        
C3        C        0.4375        0.87037        0.596113        0        
C3        C        0.5        0.87037        0.596113        0        
C3        C        0.5625        0.87037        0.596113        0        
C3        C        0.625        0.87037        0.596113        0        
C3        C        0.6875        0.87037        0.596113        0        
C3        C        0.75        0.87037        0.596113        0        
C3        C        0.8125        0.87037        0.596113        0        
C3        C        0.875        0.87037        0.596113        0        
C3        C        0.9375        0.87037        0.596113        0        
C4        C        0.03125        0.814814        0.596113        0        
C4        C        0.09375        0.814814        0.596113        0        
C4        C        0.15625        0.814814        0.596113        0        
C4        C        0.21875        0.814814        0.596113        0        
C4        C        0.28125        0.814814        0.596113        0        
C4        C        0.34375        0.814814        0.596113        0        
C4        C        0.40625        0.814814        0.596113        0        
C4        C        0.46875        0.814814        0.596113        0        
C4        C        0.53125        0.814814        0.596113        0        
C4        C        0.59375        0.814814        0.596113        0        
C4        C        0.65625        0.814814        0.596113        0        
C4        C        0.71875        0.814814        0.596113        0        
C4        C        0.78125        0.814814        0.596113        0        
C4        C        0.84375        0.814814        0.596113        0        
C4        C        0.90625        0.814814        0.596113        0        
C4        C        0.96875        0.814814        0.596113        0        
C1        C        0.0        0.907408        0.596113        0        
C1        C        0.0625        0.907408        0.596113        0        
C1        C        0.125        0.907408        0.596113        0        
C1        C        0.1875        0.907408        0.596113        0        
C1        C        0.25        0.907408        0.596113        0        
C1        C        0.3125        0.907408        0.596113        0        
C1        C        0.375        0.907408        0.596113        0        
C1        C        0.4375        0.907408        0.596113        0        
C1        C        0.5        0.907408        0.596113        0        
C1        C        0.5625        0.907408        0.596113        0        
C1        C        0.625        0.907408        0.596113        0        
C1        C        0.6875        0.907408        0.596113        0        
C1        C        0.75        0.907408        0.596113        0        
C1        C        0.8125        0.907408        0.596113        0        
C1        C        0.875        0.907408        0.596113        0        
C1        C        0.9375        0.907408        0.596113        0        
C2        C        0.03125        0.962963        0.596113        0        
C2        C        0.09375        0.962963        0.596113        0        
C2        C        0.15625        0.962963        0.596113        0        
C2        C        0.21875        0.962963        0.596113        0        
C2        C        0.28125        0.962963        0.596113        0        
C2        C        0.34375        0.962963        0.596113        0        
C2        C        0.40625        0.962963        0.596113        0        
C2        C        0.46875        0.962963        0.596113        0        
C2        C        0.53125        0.962963        0.596113        0        
C2        C        0.59375        0.962963        0.596113        0        
C2        C        0.65625        0.962963        0.596113        0        
C2        C        0.71875        0.962963        0.596113        0        
C2        C        0.78125        0.962963        0.596113        0        
C2        C        0.84375        0.962963        0.596113        0        
C2        C        0.90625        0.962963        0.596113        0        
C2        C        0.96875        0.962963        0.596113        0        
C3        C        0.0        0.981481        0.596113        0        
C3        C        0.0625        0.981481        0.596113        0        
C3        C        0.125        0.981481        0.596113        0        
C3        C        0.1875        0.981481        0.596113        0        
C3        C        0.25        0.981481        0.596113        0        
C3        C        0.3125        0.981481        0.596113        0        
C3        C        0.375        0.981481        0.596113        0        
C3        C        0.4375        0.981481        0.596113        0        
C3        C        0.5        0.981481        0.596113        0        
C3        C        0.5625        0.981481        0.596113        0        
C3        C        0.625        0.981481        0.596113        0        
C3        C        0.6875        0.981481        0.596113        0        
C3        C        0.75        0.981481        0.596113        0        
C3        C        0.8125        0.981481        0.596113        0        
C3        C        0.875        0.981481        0.596113        0        
C3        C        0.9375        0.981481        0.596113        0        
C4        C        0.03125        0.925925        0.596113        0        
C4        C        0.09375        0.925925        0.596113        0        
C4        C        0.15625        0.925925        0.596113        0        
C4        C        0.21875        0.925925        0.596113        0        
C4        C        0.28125        0.925925        0.596113        0        
C4        C        0.34375        0.925925        0.596113        0        
C4        C        0.40625        0.925925        0.596113        0        
C4        C        0.46875        0.925925        0.596113        0        
C4        C        0.53125        0.925925        0.596113        0        
C4        C        0.59375        0.925925        0.596113        0        
C4        C        0.65625        0.925925        0.596113        0        
C4        C        0.71875        0.925925        0.596113        0        
C4        C        0.78125        0.925925        0.596113        0        
C4        C        0.84375        0.925925        0.596113        0        
C4        C        0.90625        0.925925        0.596113        0        
C4        C        0.96875        0.925925        0.596113        0        
C1        C        0.0        0.018519        0.668467        0        
C2        C        0.03125        0.074075        0.668467        0        
C3        C        0.0        0.092592        0.668467        0        
C4        C        0.03125        0.037037        0.668467        0        
C1        C        0.0        0.12963        0.668467        0        
C2        C        0.03125        0.185185        0.668467        0        
C3        C        0.0        0.203703        0.668467        0        
C4        C        0.03125        0.148148        0.668467        0        
C1        C        0.0        0.240741        0.668467        0        
C2        C        0.03125        0.296297        0.668467        0        
C3        C        0.0        0.314815        0.668467        0        
C4        C        0.03125        0.259259        0.668467        0        
C1        C        0.0        0.351852        0.668467        0        
C2        C        0.03125        0.407408        0.668467        0        
C3        C        0.0        0.425925        0.668467        0        
C4        C        0.03125        0.37037        0.668467        0        
C1        C        0.0        0.462963        0.668467        0        
C2        C        0.03125        0.518519        0.668467        0        
C3        C        0.0        0.537037        0.668467        0        
C4        C        0.03125        0.481481        0.668467        0        
C1        C        0.0        0.574075        0.668467        0        
C2        C        0.03125        0.62963        0.668467        0        
C3        C        0.0        0.648148        0.668467        0        
C4        C        0.03125        0.592592        0.668467        0        
C1        C        0.0625        0.018519        0.668467        0        
C2        C        0.09375        0.074075        0.668467        0        
C3        C        0.0625        0.092592        0.668467        0        
C4        C        0.09375        0.037037        0.668467        0        
C1        C        0.0625        0.12963        0.668467        0        
C2        C        0.09375        0.185185        0.668467        0        
C3        C        0.0625        0.203703        0.668467        0        
C4        C        0.09375        0.148148        0.668467        0        
C1        C        0.0625        0.240741        0.668467        0        
C2        C        0.09375        0.296297        0.668467        0        
C3        C        0.0625        0.314815        0.668467        0        
C4        C        0.09375        0.259259        0.668467        0        
C1        C        0.0625        0.351852        0.668467        0        
C2        C        0.09375        0.407408        0.668467        0        
C3        C        0.0625        0.425925        0.668467        0        
C4        C        0.09375        0.37037        0.668467        0        
C1        C        0.0625        0.462963        0.668467        0        
C2        C        0.09375        0.518519        0.668467        0        
C3        C        0.0625        0.537037        0.668467        0        
C4        C        0.09375        0.481481        0.668467        0        
C1        C        0.0625        0.574075        0.668467        0        
C2        C        0.09375        0.62963        0.668467        0        
C3        C        0.0625        0.648148        0.668467        0        
C4        C        0.09375        0.592592        0.668467        0        
C1        C        0.125        0.018519        0.668467        0        
C2        C        0.15625        0.074075        0.668467        0        
C3        C        0.125        0.092592        0.668467        0        
C4        C        0.15625        0.037037        0.668467        0        
C1        C        0.125        0.12963        0.668467        0        
C2        C        0.15625        0.185185        0.668467        0        
C3        C        0.125        0.203703        0.668467        0        
C4        C        0.15625        0.148148        0.668467        0        
C1        C        0.125        0.240741        0.668467        0        
C2        C        0.15625        0.296297        0.668467        0        
C3        C        0.125        0.314815        0.668467        0        
C4        C        0.15625        0.259259        0.668467        0        
C1        C        0.125        0.351852        0.668467        0        
C2        C        0.15625        0.407408        0.668467        0        
C3        C        0.125        0.425925        0.668467        0        
C4        C        0.15625        0.37037        0.668467        0        
C1        C        0.125        0.462963        0.668467        0        
C2        C        0.15625        0.518519        0.668467        0        
C3        C        0.125        0.537037        0.668467        0        
C4        C        0.15625        0.481481        0.668467        0        
C1        C        0.125        0.574075        0.668467        0        
C2        C        0.15625        0.62963        0.668467        0        
C3        C        0.125        0.648148        0.668467        0        
C4        C        0.15625        0.592592        0.668467        0        
C1        C        0.1875        0.018519        0.668467        0        
C2        C        0.21875        0.074075        0.668467        0        
C3        C        0.1875        0.092592        0.668467        0        
C4        C        0.21875        0.037037        0.668467        0        
C1        C        0.1875        0.12963        0.668467        0        
C2        C        0.21875        0.185185        0.668467        0        
C3        C        0.1875        0.203703        0.668467        0        
C4        C        0.21875        0.148148        0.668467        0        
C1        C        0.1875        0.240741        0.668467        0        
C2        C        0.21875        0.296297        0.668467        0        
C3        C        0.1875        0.314815        0.668467        0        
C4        C        0.21875        0.259259        0.668467        0        
C1        C        0.1875        0.351852        0.668467        0        
C2        C        0.21875        0.407408        0.668467        0        
C3        C        0.1875        0.425925        0.668467        0        
C4        C        0.21875        0.37037        0.668467        0        
C1        C        0.1875        0.462963        0.668467        0        
C2        C        0.21875        0.518519        0.668467        0        
C3        C        0.1875        0.537037        0.668467        0        
C4        C        0.21875        0.481481        0.668467        0        
C1        C        0.1875        0.574075        0.668467        0        
C2        C        0.21875        0.62963        0.668467        0        
C3        C        0.1875        0.648148        0.668467        0        
C4        C        0.21875        0.592592        0.668467        0        
C1        C        0.25        0.018519        0.668467        0        
C2        C        0.28125        0.074075        0.668467        0        
C3        C        0.25        0.092592        0.668467        0        
C4        C        0.28125        0.037037        0.668467        0        
C1        C        0.25        0.12963        0.668467        0        
C2        C        0.28125        0.185185        0.668467        0        
C3        C        0.25        0.203703        0.668467        0        
C4        C        0.28125        0.148148        0.668467        0        
C1        C        0.25        0.240741        0.668467        0        
C2        C        0.28125        0.296297        0.668467        0        
C3        C        0.25        0.314815        0.668467        0        
C4        C        0.28125        0.259259        0.668467        0        
C1        C        0.25        0.351852        0.668467        0        
C2        C        0.28125        0.407408        0.668467        0        
C3        C        0.25        0.425925        0.668467        0        
C4        C        0.28125        0.37037        0.668467        0        
C1        C        0.25        0.462963        0.668467        0        
C2        C        0.28125        0.518519        0.668467        0        
C3        C        0.25        0.537037        0.668467        0        
C4        C        0.28125        0.481481        0.668467        0        
C1        C        0.25        0.574075        0.668467        0        
C2        C        0.28125        0.62963        0.668467        0        
C3        C        0.25        0.648148        0.668467        0        
C4        C        0.28125        0.592592        0.668467        0        
C1        C        0.3125        0.018519        0.668467        0        
C2        C        0.34375        0.074075        0.668467        0        
C3        C        0.3125        0.092592        0.668467        0        
C4        C        0.34375        0.037037        0.668467        0        
C1        C        0.3125        0.12963        0.668467        0        
C2        C        0.34375        0.185185        0.668467        0        
C3        C        0.3125        0.203703        0.668467        0        
C4        C        0.34375        0.148148        0.668467        0        
C1        C        0.3125        0.240741        0.668467        0        
C2        C        0.34375        0.296297        0.668467        0        
C3        C        0.3125        0.314815        0.668467        0        
C4        C        0.34375        0.259259        0.668467        0        
C1        C        0.3125        0.351852        0.668467        0        
C2        C        0.34375        0.407408        0.668467        0        
C3        C        0.3125        0.425925        0.668467        0        
C4        C        0.34375        0.37037        0.668467        0        
C1        C        0.3125        0.462963        0.668467        0        
C2        C        0.34375        0.518519        0.668467        0        
C3        C        0.3125        0.537037        0.668467        0        
C4        C        0.34375        0.481481        0.668467        0        
C1        C        0.3125        0.574075        0.668467        0        
C2        C        0.34375        0.62963        0.668467        0        
C3        C        0.3125        0.648148        0.668467        0        
C4        C        0.34375        0.592592        0.668467        0        
C1        C        0.375        0.018519        0.668467        0        
C2        C        0.40625        0.074075        0.668467        0        
C3        C        0.375        0.092592        0.668467        0        
C4        C        0.40625        0.037037        0.668467        0        
C1        C        0.375        0.12963        0.668467        0        
C2        C        0.40625        0.185185        0.668467        0        
C3        C        0.375        0.203703        0.668467        0        
C4        C        0.40625        0.148148        0.668467        0        
C1        C        0.375        0.240741        0.668467        0        
C2        C        0.40625        0.296297        0.668467        0        
C3        C        0.375        0.314815        0.668467        0        
C4        C        0.40625        0.259259        0.668467        0        
C1        C        0.375        0.351852        0.668467        0        
C2        C        0.40625        0.407408        0.668467        0        
C3        C        0.375        0.425925        0.668467        0        
C4        C        0.40625        0.37037        0.668467        0        
C1        C        0.375        0.462963        0.668467        0        
C2        C        0.40625        0.518519        0.668467        0        
C3        C        0.375        0.537037        0.668467        0        
C4        C        0.40625        0.481481        0.668467        0        
C1        C        0.375        0.574075        0.668467        0        
C2        C        0.40625        0.62963        0.668467        0        
C3        C        0.375        0.648148        0.668467        0        
C4        C        0.40625        0.592592        0.668467        0        
C1        C        0.4375        0.018519        0.668467        0        
C2        C        0.46875        0.074075        0.668467        0        
C3        C        0.4375        0.092592        0.668467        0        
C4        C        0.46875        0.037037        0.668467        0        
C1        C        0.4375        0.12963        0.668467        0        
C2        C        0.46875        0.185185        0.668467        0        
C3        C        0.4375        0.203703        0.668467        0        
C4        C        0.46875        0.148148        0.668467        0        
C1        C        0.4375        0.240741        0.668467        0        
C2        C        0.46875        0.296297        0.668467        0        
C3        C        0.4375        0.314815        0.668467        0        
C4        C        0.46875        0.259259        0.668467        0        
C1        C        0.4375        0.351852        0.668467        0        
C2        C        0.46875        0.407408        0.668467        0        
C3        C        0.4375        0.425925        0.668467        0        
C4        C        0.46875        0.37037        0.668467        0        
C1        C        0.4375        0.462963        0.668467        0        
C2        C        0.46875        0.518519        0.668467        0        
C3        C        0.4375        0.537037        0.668467        0        
C4        C        0.46875        0.481481        0.668467        0        
C1        C        0.4375        0.574075        0.668467        0        
C2        C        0.46875        0.62963        0.668467        0        
C3        C        0.4375        0.648148        0.668467        0        
C4        C        0.46875        0.592592        0.668467        0        
C1        C        0.5        0.018519        0.668467        0        
C2        C        0.53125        0.074075        0.668467        0        
C3        C        0.5        0.092592        0.668467        0        
C4        C        0.53125        0.037037        0.668467        0        
C1        C        0.5        0.12963        0.668467        0        
C2        C        0.53125        0.185185        0.668467        0        
C3        C        0.5        0.203703        0.668467        0        
C4        C        0.53125        0.148148        0.668467        0        
C1        C        0.5        0.240741        0.668467        0        
C2        C        0.53125        0.296297        0.668467        0        
C3        C        0.5        0.314815        0.668467        0        
C4        C        0.53125        0.259259        0.668467        0        
C1        C        0.5        0.351852        0.668467        0        
C2        C        0.53125        0.407408        0.668467        0        
C3        C        0.5        0.425925        0.668467        0        
C4        C        0.53125        0.37037        0.668467        0        
C1        C        0.5        0.462963        0.668467        0        
C2        C        0.53125        0.518519        0.668467        0        
C3        C        0.5        0.537037        0.668467        0        
C4        C        0.53125        0.481481        0.668467        0        
C1        C        0.5        0.574075        0.668467        0        
C2        C        0.53125        0.62963        0.668467        0        
C3        C        0.5        0.648148        0.668467        0        
C4        C        0.53125        0.592592        0.668467        0        
C1        C        0.5625        0.018519        0.668467        0        
C2        C        0.59375        0.074075        0.668467        0        
C3        C        0.5625        0.092592        0.668467        0        
C4        C        0.59375        0.037037        0.668467        0        
C1        C        0.5625        0.12963        0.668467        0        
C2        C        0.59375        0.185185        0.668467        0        
C3        C        0.5625        0.203703        0.668467        0        
C4        C        0.59375        0.148148        0.668467        0        
C1        C        0.5625        0.240741        0.668467        0        
C2        C        0.59375        0.296297        0.668467        0        
C3        C        0.5625        0.314815        0.668467        0        
C4        C        0.59375        0.259259        0.668467        0        
C1        C        0.5625        0.351852        0.668467        0        
C2        C        0.59375        0.407408        0.668467        0        
C3        C        0.5625        0.425925        0.668467        0        
C4        C        0.59375        0.37037        0.668467        0        
C1        C        0.5625        0.462963        0.668467        0        
C2        C        0.59375        0.518519        0.668467        0        
C3        C        0.5625        0.537037        0.668467        0        
C4        C        0.59375        0.481481        0.668467        0        
C1        C        0.5625        0.574075        0.668467        0        
C2        C        0.59375        0.62963        0.668467        0        
C3        C        0.5625        0.648148        0.668467        0        
C4        C        0.59375        0.592592        0.668467        0        
C1        C        0.625        0.018519        0.668467        0        
C2        C        0.65625        0.074075        0.668467        0        
C3        C        0.625        0.092592        0.668467        0        
C4        C        0.65625        0.037037        0.668467        0        
C1        C        0.625        0.12963        0.668467        0        
C2        C        0.65625        0.185185        0.668467        0        
C3        C        0.625        0.203703        0.668467        0        
C4        C        0.65625        0.148148        0.668467        0        
C1        C        0.625        0.240741        0.668467        0        
C2        C        0.65625        0.296297        0.668467        0        
C3        C        0.625        0.314815        0.668467        0        
C4        C        0.65625        0.259259        0.668467        0        
C1        C        0.625        0.351852        0.668467        0        
C2        C        0.65625        0.407408        0.668467        0        
C3        C        0.625        0.425925        0.668467        0        
C4        C        0.65625        0.37037        0.668467        0        
C1        C        0.625        0.462963        0.668467        0        
C2        C        0.65625        0.518519        0.668467        0        
C3        C        0.625        0.537037        0.668467        0        
C4        C        0.65625        0.481481        0.668467        0        
C1        C        0.625        0.574075        0.668467        0        
C2        C        0.65625        0.62963        0.668467        0        
C3        C        0.625        0.648148        0.668467        0        
C4        C        0.65625        0.592592        0.668467        0        
C1        C        0.6875        0.018519        0.668467        0        
C2        C        0.71875        0.074075        0.668467        0        
C3        C        0.6875        0.092592        0.668467        0        
C4        C        0.71875        0.037037        0.668467        0        
C1        C        0.6875        0.12963        0.668467        0        
C2        C        0.71875        0.185185        0.668467        0        
C3        C        0.6875        0.203703        0.668467        0        
C4        C        0.71875        0.148148        0.668467        0        
C1        C        0.6875        0.240741        0.668467        0        
C2        C        0.71875        0.296297        0.668467        0        
C3        C        0.6875        0.314815        0.668467        0        
C4        C        0.71875        0.259259        0.668467        0        
C1        C        0.6875        0.351852        0.668467        0        
C2        C        0.71875        0.407408        0.668467        0        
C3        C        0.6875        0.425925        0.668467        0        
C4        C        0.71875        0.37037        0.668467        0        
C1        C        0.6875        0.462963        0.668467        0        
C2        C        0.71875        0.518519        0.668467        0        
C3        C        0.6875        0.537037        0.668467        0        
C4        C        0.71875        0.481481        0.668467        0        
C1        C        0.6875        0.574075        0.668467        0        
C2        C        0.71875        0.62963        0.668467        0        
C3        C        0.6875        0.648148        0.668467        0        
C4        C        0.71875        0.592592        0.668467        0        
C1        C        0.75        0.018519        0.668467        0        
C2        C        0.78125        0.074075        0.668467        0        
C3        C        0.75        0.092592        0.668467        0        
C4        C        0.78125        0.037037        0.668467        0        
C1        C        0.75        0.12963        0.668467        0        
C2        C        0.78125        0.185185        0.668467        0        
C3        C        0.75        0.203703        0.668467        0        
C4        C        0.78125        0.148148        0.668467        0        
C1        C        0.75        0.240741        0.668467        0        
C2        C        0.78125        0.296297        0.668467        0        
C3        C        0.75        0.314815        0.668467        0        
C4        C        0.78125        0.259259        0.668467        0        
C1        C        0.75        0.351852        0.668467        0        
C2        C        0.78125        0.407408        0.668467        0        
C3        C        0.75        0.425925        0.668467        0        
C4        C        0.78125        0.37037        0.668467        0        
C1        C        0.75        0.462963        0.668467        0        
C2        C        0.78125        0.518519        0.668467        0        
C3        C        0.75        0.537037        0.668467        0        
C4        C        0.78125        0.481481        0.668467        0        
C1        C        0.75        0.574075        0.668467        0        
C2        C        0.78125        0.62963        0.668467        0        
C3        C        0.75        0.648148        0.668467        0        
C4        C        0.78125        0.592592        0.668467        0        
C1        C        0.8125        0.018519        0.668467        0        
C2        C        0.84375        0.074075        0.668467        0        
C3        C        0.8125        0.092592        0.668467        0        
C4        C        0.84375        0.037037        0.668467        0        
C1        C        0.8125        0.12963        0.668467        0        
C2        C        0.84375        0.185185        0.668467        0        
C3        C        0.8125        0.203703        0.668467        0        
C4        C        0.84375        0.148148        0.668467        0        
C1        C        0.8125        0.240741        0.668467        0        
C2        C        0.84375        0.296297        0.668467        0        
C3        C        0.8125        0.314815        0.668467        0        
C4        C        0.84375        0.259259        0.668467        0        
C1        C        0.8125        0.351852        0.668467        0        
C2        C        0.84375        0.407408        0.668467        0        
C3        C        0.8125        0.425925        0.668467        0        
C4        C        0.84375        0.37037        0.668467        0        
C1        C        0.8125        0.462963        0.668467        0        
C2        C        0.84375        0.518519        0.668467        0        
C3        C        0.8125        0.537037        0.668467        0        
C4        C        0.84375        0.481481        0.668467        0        
C1        C        0.8125        0.574075        0.668467        0        
C2        C        0.84375        0.62963        0.668467        0        
C3        C        0.8125        0.648148        0.668467        0        
C4        C        0.84375        0.592592        0.668467        0        
C1        C        0.875        0.018519        0.668467        0        
C2        C        0.90625        0.074075        0.668467        0        
C3        C        0.875        0.092592        0.668467        0        
C4        C        0.90625        0.037037        0.668467        0        
C1        C        0.875        0.12963        0.668467        0        
C2        C        0.90625        0.185185        0.668467        0        
C3        C        0.875        0.203703        0.668467        0        
C4        C        0.90625        0.148148        0.668467        0        
C1        C        0.875        0.240741        0.668467        0        
C2        C        0.90625        0.296297        0.668467        0        
C3        C        0.875        0.314815        0.668467        0        
C4        C        0.90625        0.259259        0.668467        0        
C1        C        0.875        0.351852        0.668467        0        
C2        C        0.90625        0.407408        0.668467        0        
C3        C        0.875        0.425925        0.668467        0        
C4        C        0.90625        0.37037        0.668467        0        
C1        C        0.875        0.462963        0.668467        0        
C2        C        0.90625        0.518519        0.668467        0        
C3        C        0.875        0.537037        0.668467        0        
C4        C        0.90625        0.481481        0.668467        0        
C1        C        0.875        0.574075        0.668467        0        
C2        C        0.90625        0.62963        0.668467        0        
C3        C        0.875        0.648148        0.668467        0        
C4        C        0.90625        0.592592        0.668467        0        
C1        C        0.9375        0.018519        0.668467        0        
C2        C        0.96875        0.074075        0.668467        0        
C3        C        0.9375        0.092592        0.668467        0        
C4        C        0.96875        0.037037        0.668467        0        
C1        C        0.9375        0.12963        0.668467        0        
C2        C        0.96875        0.185185        0.668467        0        
C3        C        0.9375        0.203703        0.668467        0        
C4        C        0.96875        0.148148        0.668467        0        
C1        C        0.9375        0.240741        0.668467        0        
C2        C        0.96875        0.296297        0.668467        0        
C3        C        0.9375        0.314815        0.668467        0        
C4        C        0.96875        0.259259        0.668467        0        
C1        C        0.9375        0.351852        0.668467        0        
C2        C        0.96875        0.407408        0.668467        0        
C3        C        0.9375        0.425925        0.668467        0        
C4        C        0.96875        0.37037        0.668467        0        
C1        C        0.9375        0.462963        0.668467        0        
C2        C        0.96875        0.518519        0.668467        0        
C3        C        0.9375        0.537037        0.668467        0        
C4        C        0.96875        0.481481        0.668467        0        
C1        C        0.9375        0.574075        0.668467        0        
C2        C        0.96875        0.62963        0.668467        0        
C3        C        0.9375        0.648148        0.668467        0        
C4        C        0.96875        0.592592        0.668467        0        
C1        C        0.0        0.685186        0.668467        0        
C1        C        0.0625        0.685186        0.668467        0        
C1        C        0.125        0.685186        0.668467        0        
C1        C        0.1875        0.685186        0.668467        0        
C1        C        0.25        0.685186        0.668467        0        
C1        C        0.3125        0.685186        0.668467        0        
C1        C        0.375        0.685186        0.668467        0        
C1        C        0.4375        0.685186        0.668467        0        
C1        C        0.5        0.685186        0.668467        0        
C1        C        0.5625        0.685186        0.668467        0        
C1        C        0.625        0.685186        0.668467        0        
C1        C        0.6875        0.685186        0.668467        0        
C1        C        0.75        0.685186        0.668467        0        
C1        C        0.8125        0.685186        0.668467        0        
C1        C        0.875        0.685186        0.668467        0        
C1        C        0.9375        0.685186        0.668467        0        
C2        C        0.03125        0.740741        0.668467        0        
C2        C        0.09375        0.740741        0.668467        0        
C2        C        0.15625        0.740741        0.668467        0        
C2        C        0.21875        0.740741        0.668467        0        
C2        C        0.28125        0.740741        0.668467        0        
C2        C        0.34375        0.740741        0.668467        0        
C2        C        0.40625        0.740741        0.668467        0        
C2        C        0.46875        0.740741        0.668467        0        
C2        C        0.53125        0.740741        0.668467        0        
C2        C        0.59375        0.740741        0.668467        0        
C2        C        0.65625        0.740741        0.668467        0        
C2        C        0.71875        0.740741        0.668467        0        
C2        C        0.78125        0.740741        0.668467        0        
C2        C        0.84375        0.740741        0.668467        0        
C2        C        0.90625        0.740741        0.668467        0        
C2        C        0.96875        0.740741        0.668467        0        
C3        C        0.0        0.759259        0.668467        0        
C3        C        0.0625        0.759259        0.668467        0        
C3        C        0.125        0.759259        0.668467        0        
C3        C        0.1875        0.759259        0.668467        0        
C3        C        0.25        0.759259        0.668467        0        
C3        C        0.3125        0.759259        0.668467        0        
C3        C        0.375        0.759259        0.668467        0        
C3        C        0.4375        0.759259        0.668467        0        
C3        C        0.5        0.759259        0.668467        0        
C3        C        0.5625        0.759259        0.668467        0        
C3        C        0.625        0.759259        0.668467        0        
C3        C        0.6875        0.759259        0.668467        0        
C3        C        0.75        0.759259        0.668467        0        
C3        C        0.8125        0.759259        0.668467        0        
C3        C        0.875        0.759259        0.668467        0        
C3        C        0.9375        0.759259        0.668467        0        
C4        C        0.03125        0.703703        0.668467        0        
C4        C        0.09375        0.703703        0.668467        0        
C4        C        0.15625        0.703703        0.668467        0        
C4        C        0.21875        0.703703        0.668467        0        
C4        C        0.28125        0.703703        0.668467        0        
C4        C        0.34375        0.703703        0.668467        0        
C4        C        0.40625        0.703703        0.668467        0        
C4        C        0.46875        0.703703        0.668467        0        
C4        C        0.53125        0.703703        0.668467        0        
C4        C        0.59375        0.703703        0.668467        0        
C4        C        0.65625        0.703703        0.668467        0        
C4        C        0.71875        0.703703        0.668467        0        
C4        C        0.78125        0.703703        0.668467        0        
C4        C        0.84375        0.703703        0.668467        0        
C4        C        0.90625        0.703703        0.668467        0        
C4        C        0.96875        0.703703        0.668467        0        
C1        C        0.0        0.796297        0.668467        0        
C1        C        0.0625        0.796297        0.668467        0        
C1        C        0.125        0.796297        0.668467        0        
C1        C        0.1875        0.796297        0.668467        0        
C1        C        0.25        0.796297        0.668467        0        
C1        C        0.3125        0.796297        0.668467        0        
C1        C        0.375        0.796297        0.668467        0        
C1        C        0.4375        0.796297        0.668467        0        
C1        C        0.5        0.796297        0.668467        0        
C1        C        0.5625        0.796297        0.668467        0        
C1        C        0.625        0.796297        0.668467        0        
C1        C        0.6875        0.796297        0.668467        0        
C1        C        0.75        0.796297        0.668467        0        
C1        C        0.8125        0.796297        0.668467        0        
C1        C        0.875        0.796297        0.668467        0        
C1        C        0.9375        0.796297        0.668467        0        
C2        C        0.03125        0.851852        0.668467        0        
C2        C        0.09375        0.851852        0.668467        0        
C2        C        0.15625        0.851852        0.668467        0        
C2        C        0.21875        0.851852        0.668467        0        
C2        C        0.28125        0.851852        0.668467        0        
C2        C        0.34375        0.851852        0.668467        0        
C2        C        0.40625        0.851852        0.668467        0        
C2        C        0.46875        0.851852        0.668467        0        
C2        C        0.53125        0.851852        0.668467        0        
C2        C        0.59375        0.851852        0.668467        0        
C2        C        0.65625        0.851852        0.668467        0        
C2        C        0.71875        0.851852        0.668467        0        
C2        C        0.78125        0.851852        0.668467        0        
C2        C        0.84375        0.851852        0.668467        0        
C2        C        0.90625        0.851852        0.668467        0        
C2        C        0.96875        0.851852        0.668467        0        
C3        C        0.0        0.87037        0.668467        0        
C3        C        0.0625        0.87037        0.668467        0        
C3        C        0.125        0.87037        0.668467        0        
C3        C        0.1875        0.87037        0.668467        0        
C3        C        0.25        0.87037        0.668467        0        
C3        C        0.3125        0.87037        0.668467        0        
C3        C        0.375        0.87037        0.668467        0        
C3        C        0.4375        0.87037        0.668467        0        
C3        C        0.5        0.87037        0.668467        0        
C3        C        0.5625        0.87037        0.668467        0        
C3        C        0.625        0.87037        0.668467        0        
C3        C        0.6875        0.87037        0.668467        0        
C3        C        0.75        0.87037        0.668467        0        
C3        C        0.8125        0.87037        0.668467        0        
C3        C        0.875        0.87037        0.668467        0        
C3        C        0.9375        0.87037        0.668467        0        
C4        C        0.03125        0.814814        0.668467        0        
C4        C        0.09375        0.814814        0.668467        0        
C4        C        0.15625        0.814814        0.668467        0        
C4        C        0.21875        0.814814        0.668467        0        
C4        C        0.28125        0.814814        0.668467        0        
C4        C        0.34375        0.814814        0.668467        0        
C4        C        0.40625        0.814814        0.668467        0        
C4        C        0.46875        0.814814        0.668467        0        
C4        C        0.53125        0.814814        0.668467        0        
C4        C        0.59375        0.814814        0.668467        0        
C4        C        0.65625        0.814814        0.668467        0        
C4        C        0.71875        0.814814        0.668467        0        
C4        C        0.78125        0.814814        0.668467        0        
C4        C        0.84375        0.814814        0.668467        0        
C4        C        0.90625        0.814814        0.668467        0        
C4        C        0.96875        0.814814        0.668467        0        
C1        C        0.0        0.907408        0.668467        0        
C1        C        0.0625        0.907408        0.668467        0        
C1        C        0.125        0.907408        0.668467        0        
C1        C        0.1875        0.907408        0.668467        0        
C1        C        0.25        0.907408        0.668467        0        
C1        C        0.3125        0.907408        0.668467        0        
C1        C        0.375        0.907408        0.668467        0        
C1        C        0.4375        0.907408        0.668467        0        
C1        C        0.5        0.907408        0.668467        0        
C1        C        0.5625        0.907408        0.668467        0        
C1        C        0.625        0.907408        0.668467        0        
C1        C        0.6875        0.907408        0.668467        0        
C1        C        0.75        0.907408        0.668467        0        
C1        C        0.8125        0.907408        0.668467        0        
C1        C        0.875        0.907408        0.668467        0        
C1        C        0.9375        0.907408        0.668467        0        
C2        C        0.03125        0.962963        0.668467        0        
C2        C        0.09375        0.962963        0.668467        0        
C2        C        0.15625        0.962963        0.668467        0        
C2        C        0.21875        0.962963        0.668467        0        
C2        C        0.28125        0.962963        0.668467        0        
C2        C        0.34375        0.962963        0.668467        0        
C2        C        0.40625        0.962963        0.668467        0        
C2        C        0.46875        0.962963        0.668467        0        
C2        C        0.53125        0.962963        0.668467        0        
C2        C        0.59375        0.962963        0.668467        0        
C2        C        0.65625        0.962963        0.668467        0        
C2        C        0.71875        0.962963        0.668467        0        
C2        C        0.78125        0.962963        0.668467        0        
C2        C        0.84375        0.962963        0.668467        0        
C2        C        0.90625        0.962963        0.668467        0        
C2        C        0.96875        0.962963        0.668467        0        
C3        C        0.0        0.981481        0.668467        0        
C3        C        0.0625        0.981481        0.668467        0        
C3        C        0.125        0.981481        0.668467        0        
C3        C        0.1875        0.981481        0.668467        0        
C3        C        0.25        0.981481        0.668467        0        
C3        C        0.3125        0.981481        0.668467        0        
C3        C        0.375        0.981481        0.668467        0        
C3        C        0.4375        0.981481        0.668467        0        
C3        C        0.5        0.981481        0.668467        0        
C3        C        0.5625        0.981481        0.668467        0        
C3        C        0.625        0.981481        0.668467        0        
C3        C        0.6875        0.981481        0.668467        0        
C3        C        0.75        0.981481        0.668467        0        
C3        C        0.8125        0.981481        0.668467        0        
C3        C        0.875        0.981481        0.668467        0        
C3        C        0.9375        0.981481        0.668467        0        
C4        C        0.03125        0.925925        0.668467        0        
C4        C        0.09375        0.925925        0.668467        0        
C4        C        0.15625        0.925925        0.668467        0        
C4        C        0.21875        0.925925        0.668467        0        
C4        C        0.28125        0.925925        0.668467        0        
C4        C        0.34375        0.925925        0.668467        0        
C4        C        0.40625        0.925925        0.668467        0        
C4        C        0.46875        0.925925        0.668467        0        
C4        C        0.53125        0.925925        0.668467        0        
C4        C        0.59375        0.925925        0.668467        0        
C4        C        0.65625        0.925925        0.668467        0        
C4        C        0.71875        0.925925        0.668467        0        
C4        C        0.78125        0.925925        0.668467        0        
C4        C        0.84375        0.925925        0.668467        0        
C4        C        0.90625        0.925925        0.668467        0        
C4        C        0.96875        0.925925        0.668467        0        
C1        C        0.0        0.018519        0.740821        0        
C2        C        0.03125        0.074075        0.740821        0        
C3        C        0.0        0.092592        0.740821        0        
C4        C        0.03125        0.037037        0.740821        0        
C1        C        0.0        0.12963        0.740821        0        
C2        C        0.03125        0.185185        0.740821        0        
C3        C        0.0        0.203703        0.740821        0        
C4        C        0.03125        0.148148        0.740821        0        
C1        C        0.0        0.240741        0.740821        0        
C2        C        0.03125        0.296297        0.740821        0        
C3        C        0.0        0.314815        0.740821        0        
C4        C        0.03125        0.259259        0.740821        0        
C1        C        0.0        0.351852        0.740821        0        
C2        C        0.03125        0.407408        0.740821        0        
C3        C        0.0        0.425925        0.740821        0        
C4        C        0.03125        0.37037        0.740821        0        
C1        C        0.0        0.462963        0.740821        0        
C2        C        0.03125        0.518519        0.740821        0        
C3        C        0.0        0.537037        0.740821        0        
C4        C        0.03125        0.481481        0.740821        0        
C1        C        0.0        0.574075        0.740821        0        
C2        C        0.03125        0.62963        0.740821        0        
C3        C        0.0        0.648148        0.740821        0        
C4        C        0.03125        0.592592        0.740821        0        
C1        C        0.0625        0.018519        0.740821        0        
C2        C        0.09375        0.074075        0.740821        0        
C3        C        0.0625        0.092592        0.740821        0        
C4        C        0.09375        0.037037        0.740821        0        
C1        C        0.0625        0.12963        0.740821        0        
C2        C        0.09375        0.185185        0.740821        0        
C3        C        0.0625        0.203703        0.740821        0        
C4        C        0.09375        0.148148        0.740821        0        
C1        C        0.0625        0.240741        0.740821        0        
C2        C        0.09375        0.296297        0.740821        0        
C3        C        0.0625        0.314815        0.740821        0        
C4        C        0.09375        0.259259        0.740821        0        
C1        C        0.0625        0.351852        0.740821        0        
C2        C        0.09375        0.407408        0.740821        0        
C3        C        0.0625        0.425925        0.740821        0        
C4        C        0.09375        0.37037        0.740821        0        
C1        C        0.0625        0.462963        0.740821        0        
C2        C        0.09375        0.518519        0.740821        0        
C3        C        0.0625        0.537037        0.740821        0        
C4        C        0.09375        0.481481        0.740821        0        
C1        C        0.0625        0.574075        0.740821        0        
C2        C        0.09375        0.62963        0.740821        0        
C3        C        0.0625        0.648148        0.740821        0        
C4        C        0.09375        0.592592        0.740821        0        
C1        C        0.125        0.018519        0.740821        0        
C2        C        0.15625        0.074075        0.740821        0        
C3        C        0.125        0.092592        0.740821        0        
C4        C        0.15625        0.037037        0.740821        0        
C1        C        0.125        0.12963        0.740821        0        
C2        C        0.15625        0.185185        0.740821        0        
C3        C        0.125        0.203703        0.740821        0        
C4        C        0.15625        0.148148        0.740821        0        
C1        C        0.125        0.240741        0.740821        0        
C2        C        0.15625        0.296297        0.740821        0        
C3        C        0.125        0.314815        0.740821        0        
C4        C        0.15625        0.259259        0.740821        0        
C1        C        0.125        0.351852        0.740821        0        
C2        C        0.15625        0.407408        0.740821        0        
C3        C        0.125        0.425925        0.740821        0        
C4        C        0.15625        0.37037        0.740821        0        
C1        C        0.125        0.462963        0.740821        0        
C2        C        0.15625        0.518519        0.740821        0        
C3        C        0.125        0.537037        0.740821        0        
C4        C        0.15625        0.481481        0.740821        0        
C1        C        0.125        0.574075        0.740821        0        
C2        C        0.15625        0.62963        0.740821        0        
C3        C        0.125        0.648148        0.740821        0        
C4        C        0.15625        0.592592        0.740821        0        
C1        C        0.1875        0.018519        0.740821        0        
C2        C        0.21875        0.074075        0.740821        0        
C3        C        0.1875        0.092592        0.740821        0        
C4        C        0.21875        0.037037        0.740821        0        
C1        C        0.1875        0.12963        0.740821        0        
C2        C        0.21875        0.185185        0.740821        0        
C3        C        0.1875        0.203703        0.740821        0        
C4        C        0.21875        0.148148        0.740821        0        
C1        C        0.1875        0.240741        0.740821        0        
C2        C        0.21875        0.296297        0.740821        0        
C3        C        0.1875        0.314815        0.740821        0        
C4        C        0.21875        0.259259        0.740821        0        
C1        C        0.1875        0.351852        0.740821        0        
C2        C        0.21875        0.407408        0.740821        0        
C3        C        0.1875        0.425925        0.740821        0        
C4        C        0.21875        0.37037        0.740821        0        
C1        C        0.1875        0.462963        0.740821        0        
C2        C        0.21875        0.518519        0.740821        0        
C3        C        0.1875        0.537037        0.740821        0        
C4        C        0.21875        0.481481        0.740821        0        
C1        C        0.1875        0.574075        0.740821        0        
C2        C        0.21875        0.62963        0.740821        0        
C3        C        0.1875        0.648148        0.740821        0        
C4        C        0.21875        0.592592        0.740821        0        
C1        C        0.25        0.018519        0.740821        0        
C2        C        0.28125        0.074075        0.740821        0        
C3        C        0.25        0.092592        0.740821        0        
C4        C        0.28125        0.037037        0.740821        0        
C1        C        0.25        0.12963        0.740821        0        
C2        C        0.28125        0.185185        0.740821        0        
C3        C        0.25        0.203703        0.740821        0        
C4        C        0.28125        0.148148        0.740821        0        
C1        C        0.25        0.240741        0.740821        0        
C2        C        0.28125        0.296297        0.740821        0        
C3        C        0.25        0.314815        0.740821        0        
C4        C        0.28125        0.259259        0.740821        0        
C1        C        0.25        0.351852        0.740821        0        
C2        C        0.28125        0.407408        0.740821        0        
C3        C        0.25        0.425925        0.740821        0        
C4        C        0.28125        0.37037        0.740821        0        
C1        C        0.25        0.462963        0.740821        0        
C2        C        0.28125        0.518519        0.740821        0        
C3        C        0.25        0.537037        0.740821        0        
C4        C        0.28125        0.481481        0.740821        0        
C1        C        0.25        0.574075        0.740821        0        
C2        C        0.28125        0.62963        0.740821        0        
C3        C        0.25        0.648148        0.740821        0        
C4        C        0.28125        0.592592        0.740821        0        
C1        C        0.3125        0.018519        0.740821        0        
C2        C        0.34375        0.074075        0.740821        0        
C3        C        0.3125        0.092592        0.740821        0        
C4        C        0.34375        0.037037        0.740821        0        
C1        C        0.3125        0.12963        0.740821        0        
C2        C        0.34375        0.185185        0.740821        0        
C3        C        0.3125        0.203703        0.740821        0        
C4        C        0.34375        0.148148        0.740821        0        
C1        C        0.3125        0.240741        0.740821        0        
C2        C        0.34375        0.296297        0.740821        0        
C3        C        0.3125        0.314815        0.740821        0        
C4        C        0.34375        0.259259        0.740821        0        
C1        C        0.3125        0.351852        0.740821        0        
C2        C        0.34375        0.407408        0.740821        0        
C3        C        0.3125        0.425925        0.740821        0        
C4        C        0.34375        0.37037        0.740821        0        
C1        C        0.3125        0.462963        0.740821        0        
C2        C        0.34375        0.518519        0.740821        0        
C3        C        0.3125        0.537037        0.740821        0        
C4        C        0.34375        0.481481        0.740821        0        
C1        C        0.3125        0.574075        0.740821        0        
C2        C        0.34375        0.62963        0.740821        0        
C3        C        0.3125        0.648148        0.740821        0        
C4        C        0.34375        0.592592        0.740821        0        
C1        C        0.375        0.018519        0.740821        0        
C2        C        0.40625        0.074075        0.740821        0        
C3        C        0.375        0.092592        0.740821        0        
C4        C        0.40625        0.037037        0.740821        0        
C1        C        0.375        0.12963        0.740821        0        
C2        C        0.40625        0.185185        0.740821        0        
C3        C        0.375        0.203703        0.740821        0        
C4        C        0.40625        0.148148        0.740821        0        
C1        C        0.375        0.240741        0.740821        0        
C2        C        0.40625        0.296297        0.740821        0        
C3        C        0.375        0.314815        0.740821        0        
C4        C        0.40625        0.259259        0.740821        0        
C1        C        0.375        0.351852        0.740821        0        
C2        C        0.40625        0.407408        0.740821        0        
C3        C        0.375        0.425925        0.740821        0        
C4        C        0.40625        0.37037        0.740821        0        
C1        C        0.375        0.462963        0.740821        0        
C2        C        0.40625        0.518519        0.740821        0        
C3        C        0.375        0.537037        0.740821        0        
C4        C        0.40625        0.481481        0.740821        0        
C1        C        0.375        0.574075        0.740821        0        
C2        C        0.40625        0.62963        0.740821        0        
C3        C        0.375        0.648148        0.740821        0        
C4        C        0.40625        0.592592        0.740821        0        
C1        C        0.4375        0.018519        0.740821        0        
C2        C        0.46875        0.074075        0.740821        0        
C3        C        0.4375        0.092592        0.740821        0        
C4        C        0.46875        0.037037        0.740821        0        
C1        C        0.4375        0.12963        0.740821        0        
C2        C        0.46875        0.185185        0.740821        0        
C3        C        0.4375        0.203703        0.740821        0        
C4        C        0.46875        0.148148        0.740821        0        
C1        C        0.4375        0.240741        0.740821        0        
C2        C        0.46875        0.296297        0.740821        0        
C3        C        0.4375        0.314815        0.740821        0        
C4        C        0.46875        0.259259        0.740821        0        
C1        C        0.4375        0.351852        0.740821        0        
C2        C        0.46875        0.407408        0.740821        0        
C3        C        0.4375        0.425925        0.740821        0        
C4        C        0.46875        0.37037        0.740821        0        
C1        C        0.4375        0.462963        0.740821        0        
C2        C        0.46875        0.518519        0.740821        0        
C3        C        0.4375        0.537037        0.740821        0        
C4        C        0.46875        0.481481        0.740821        0        
C1        C        0.4375        0.574075        0.740821        0        
C2        C        0.46875        0.62963        0.740821        0        
C3        C        0.4375        0.648148        0.740821        0        
C4        C        0.46875        0.592592        0.740821        0        
C1        C        0.5        0.018519        0.740821        0        
C2        C        0.53125        0.074075        0.740821        0        
C3        C        0.5        0.092592        0.740821        0        
C4        C        0.53125        0.037037        0.740821        0        
C1        C        0.5        0.12963        0.740821        0        
C2        C        0.53125        0.185185        0.740821        0        
C3        C        0.5        0.203703        0.740821        0        
C4        C        0.53125        0.148148        0.740821        0        
C1        C        0.5        0.240741        0.740821        0        
C2        C        0.53125        0.296297        0.740821        0        
C3        C        0.5        0.314815        0.740821        0        
C4        C        0.53125        0.259259        0.740821        0        
C1        C        0.5        0.351852        0.740821        0        
C2        C        0.53125        0.407408        0.740821        0        
C3        C        0.5        0.425925        0.740821        0        
C4        C        0.53125        0.37037        0.740821        0        
C1        C        0.5        0.462963        0.740821        0        
C2        C        0.53125        0.518519        0.740821        0        
C3        C        0.5        0.537037        0.740821        0        
C4        C        0.53125        0.481481        0.740821        0        
C1        C        0.5        0.574075        0.740821        0        
C2        C        0.53125        0.62963        0.740821        0        
C3        C        0.5        0.648148        0.740821        0        
C4        C        0.53125        0.592592        0.740821        0        
C1        C        0.5625        0.018519        0.740821        0        
C2        C        0.59375        0.074075        0.740821        0        
C3        C        0.5625        0.092592        0.740821        0        
C4        C        0.59375        0.037037        0.740821        0        
C1        C        0.5625        0.12963        0.740821        0        
C2        C        0.59375        0.185185        0.740821        0        
C3        C        0.5625        0.203703        0.740821        0        
C4        C        0.59375        0.148148        0.740821        0        
C1        C        0.5625        0.240741        0.740821        0        
C2        C        0.59375        0.296297        0.740821        0        
C3        C        0.5625        0.314815        0.740821        0        
C4        C        0.59375        0.259259        0.740821        0        
C1        C        0.5625        0.351852        0.740821        0        
C2        C        0.59375        0.407408        0.740821        0        
C3        C        0.5625        0.425925        0.740821        0        
C4        C        0.59375        0.37037        0.740821        0        
C1        C        0.5625        0.462963        0.740821        0        
C2        C        0.59375        0.518519        0.740821        0        
C3        C        0.5625        0.537037        0.740821        0        
C4        C        0.59375        0.481481        0.740821        0        
C1        C        0.5625        0.574075        0.740821        0        
C2        C        0.59375        0.62963        0.740821        0        
C3        C        0.5625        0.648148        0.740821        0        
C4        C        0.59375        0.592592        0.740821        0        
C1        C        0.625        0.018519        0.740821        0        
C2        C        0.65625        0.074075        0.740821        0        
C3        C        0.625        0.092592        0.740821        0        
C4        C        0.65625        0.037037        0.740821        0        
C1        C        0.625        0.12963        0.740821        0        
C2        C        0.65625        0.185185        0.740821        0        
C3        C        0.625        0.203703        0.740821        0        
C4        C        0.65625        0.148148        0.740821        0        
C1        C        0.625        0.240741        0.740821        0        
C2        C        0.65625        0.296297        0.740821        0        
C3        C        0.625        0.314815        0.740821        0        
C4        C        0.65625        0.259259        0.740821        0        
C1        C        0.625        0.351852        0.740821        0        
C2        C        0.65625        0.407408        0.740821        0        
C3        C        0.625        0.425925        0.740821        0        
C4        C        0.65625        0.37037        0.740821        0        
C1        C        0.625        0.462963        0.740821        0        
C2        C        0.65625        0.518519        0.740821        0        
C3        C        0.625        0.537037        0.740821        0        
C4        C        0.65625        0.481481        0.740821        0        
C1        C        0.625        0.574075        0.740821        0        
C2        C        0.65625        0.62963        0.740821        0        
C3        C        0.625        0.648148        0.740821        0        
C4        C        0.65625        0.592592        0.740821        0        
C1        C        0.6875        0.018519        0.740821        0        
C2        C        0.71875        0.074075        0.740821        0        
C3        C        0.6875        0.092592        0.740821        0        
C4        C        0.71875        0.037037        0.740821        0        
C1        C        0.6875        0.12963        0.740821        0        
C2        C        0.71875        0.185185        0.740821        0        
C3        C        0.6875        0.203703        0.740821        0        
C4        C        0.71875        0.148148        0.740821        0        
C1        C        0.6875        0.240741        0.740821        0        
C2        C        0.71875        0.296297        0.740821        0        
C3        C        0.6875        0.314815        0.740821        0        
C4        C        0.71875        0.259259        0.740821        0        
C1        C        0.6875        0.351852        0.740821        0        
C2        C        0.71875        0.407408        0.740821        0        
C3        C        0.6875        0.425925        0.740821        0        
C4        C        0.71875        0.37037        0.740821        0        
C1        C        0.6875        0.462963        0.740821        0        
C2        C        0.71875        0.518519        0.740821        0        
C3        C        0.6875        0.537037        0.740821        0        
C4        C        0.71875        0.481481        0.740821        0        
C1        C        0.6875        0.574075        0.740821        0        
C2        C        0.71875        0.62963        0.740821        0        
C3        C        0.6875        0.648148        0.740821        0        
C4        C        0.71875        0.592592        0.740821        0        
C1        C        0.75        0.018519        0.740821        0        
C2        C        0.78125        0.074075        0.740821        0        
C3        C        0.75        0.092592        0.740821        0        
C4        C        0.78125        0.037037        0.740821        0        
C1        C        0.75        0.12963        0.740821        0        
C2        C        0.78125        0.185185        0.740821        0        
C3        C        0.75        0.203703        0.740821        0        
C4        C        0.78125        0.148148        0.740821        0        
C1        C        0.75        0.240741        0.740821        0        
C2        C        0.78125        0.296297        0.740821        0        
C3        C        0.75        0.314815        0.740821        0        
C4        C        0.78125        0.259259        0.740821        0        
C1        C        0.75        0.351852        0.740821        0        
C2        C        0.78125        0.407408        0.740821        0        
C3        C        0.75        0.425925        0.740821        0        
C4        C        0.78125        0.37037        0.740821        0        
C1        C        0.75        0.462963        0.740821        0        
C2        C        0.78125        0.518519        0.740821        0        
C3        C        0.75        0.537037        0.740821        0        
C4        C        0.78125        0.481481        0.740821        0        
C1        C        0.75        0.574075        0.740821        0        
C2        C        0.78125        0.62963        0.740821        0        
C3        C        0.75        0.648148        0.740821        0        
C4        C        0.78125        0.592592        0.740821        0        
C1        C        0.8125        0.018519        0.740821        0        
C2        C        0.84375        0.074075        0.740821        0        
C3        C        0.8125        0.092592        0.740821        0        
C4        C        0.84375        0.037037        0.740821        0        
C1        C        0.8125        0.12963        0.740821        0        
C2        C        0.84375        0.185185        0.740821        0        
C3        C        0.8125        0.203703        0.740821        0        
C4        C        0.84375        0.148148        0.740821        0        
C1        C        0.8125        0.240741        0.740821        0        
C2        C        0.84375        0.296297        0.740821        0        
C3        C        0.8125        0.314815        0.740821        0        
C4        C        0.84375        0.259259        0.740821        0        
C1        C        0.8125        0.351852        0.740821        0        
C2        C        0.84375        0.407408        0.740821        0        
C3        C        0.8125        0.425925        0.740821        0        
C4        C        0.84375        0.37037        0.740821        0        
C1        C        0.8125        0.462963        0.740821        0        
C2        C        0.84375        0.518519        0.740821        0        
C3        C        0.8125        0.537037        0.740821        0        
C4        C        0.84375        0.481481        0.740821        0        
C1        C        0.8125        0.574075        0.740821        0        
C2        C        0.84375        0.62963        0.740821        0        
C3        C        0.8125        0.648148        0.740821        0        
C4        C        0.84375        0.592592        0.740821        0        
C1        C        0.875        0.018519        0.740821        0        
C2        C        0.90625        0.074075        0.740821        0        
C3        C        0.875        0.092592        0.740821        0        
C4        C        0.90625        0.037037        0.740821        0        
C1        C        0.875        0.12963        0.740821        0        
C2        C        0.90625        0.185185        0.740821        0        
C3        C        0.875        0.203703        0.740821        0        
C4        C        0.90625        0.148148        0.740821        0        
C1        C        0.875        0.240741        0.740821        0        
C2        C        0.90625        0.296297        0.740821        0        
C3        C        0.875        0.314815        0.740821        0        
C4        C        0.90625        0.259259        0.740821        0        
C1        C        0.875        0.351852        0.740821        0        
C2        C        0.90625        0.407408        0.740821        0        
C3        C        0.875        0.425925        0.740821        0        
C4        C        0.90625        0.37037        0.740821        0        
C1        C        0.875        0.462963        0.740821        0        
C2        C        0.90625        0.518519        0.740821        0        
C3        C        0.875        0.537037        0.740821        0        
C4        C        0.90625        0.481481        0.740821        0        
C1        C        0.875        0.574075        0.740821        0        
C2        C        0.90625        0.62963        0.740821        0        
C3        C        0.875        0.648148        0.740821        0        
C4        C        0.90625        0.592592        0.740821        0        
C1        C        0.9375        0.018519        0.740821        0        
C2        C        0.96875        0.074075        0.740821        0        
C3        C        0.9375        0.092592        0.740821        0        
C4        C        0.96875        0.037037        0.740821        0        
C1        C        0.9375        0.12963        0.740821        0        
C2        C        0.96875        0.185185        0.740821        0        
C3        C        0.9375        0.203703        0.740821        0        
C4        C        0.96875        0.148148        0.740821        0        
C1        C        0.9375        0.240741        0.740821        0        
C2        C        0.96875        0.296297        0.740821        0        
C3        C        0.9375        0.314815        0.740821        0        
C4        C        0.96875        0.259259        0.740821        0        
C1        C        0.9375        0.351852        0.740821        0        
C2        C        0.96875        0.407408        0.740821        0        
C3        C        0.9375        0.425925        0.740821        0        
C4        C        0.96875        0.37037        0.740821        0        
C1        C        0.9375        0.462963        0.740821        0        
C2        C        0.96875        0.518519        0.740821        0        
C3        C        0.9375        0.537037        0.740821        0        
C4        C        0.96875        0.481481        0.740821        0        
C1        C        0.9375        0.574075        0.740821        0        
C2        C        0.96875        0.62963        0.740821        0        
C3        C        0.9375        0.648148        0.740821        0        
C4        C        0.96875        0.592592        0.740821        0        
C1        C        0.0        0.685186        0.740821        0        
C1        C        0.0625        0.685186        0.740821        0        
C1        C        0.125        0.685186        0.740821        0        
C1        C        0.1875        0.685186        0.740821        0        
C1        C        0.25        0.685186        0.740821        0        
C1        C        0.3125        0.685186        0.740821        0        
C1        C        0.375        0.685186        0.740821        0        
C1        C        0.4375        0.685186        0.740821        0        
C1        C        0.5        0.685186        0.740821        0        
C1        C        0.5625        0.685186        0.740821        0        
C1        C        0.625        0.685186        0.740821        0        
C1        C        0.6875        0.685186        0.740821        0        
C1        C        0.75        0.685186        0.740821        0        
C1        C        0.8125        0.685186        0.740821        0        
C1        C        0.875        0.685186        0.740821        0        
C1        C        0.9375        0.685186        0.740821        0        
C2        C        0.03125        0.740741        0.740821        0        
C2        C        0.09375        0.740741        0.740821        0        
C2        C        0.15625        0.740741        0.740821        0        
C2        C        0.21875        0.740741        0.740821        0        
C2        C        0.28125        0.740741        0.740821        0        
C2        C        0.34375        0.740741        0.740821        0        
C2        C        0.40625        0.740741        0.740821        0        
C2        C        0.46875        0.740741        0.740821        0        
C2        C        0.53125        0.740741        0.740821        0        
C2        C        0.59375        0.740741        0.740821        0        
C2        C        0.65625        0.740741        0.740821        0        
C2        C        0.71875        0.740741        0.740821        0        
C2        C        0.78125        0.740741        0.740821        0        
C2        C        0.84375        0.740741        0.740821        0        
C2        C        0.90625        0.740741        0.740821        0        
C2        C        0.96875        0.740741        0.740821        0        
C3        C        0.0        0.759259        0.740821        0        
C3        C        0.0625        0.759259        0.740821        0        
C3        C        0.125        0.759259        0.740821        0        
C3        C        0.1875        0.759259        0.740821        0        
C3        C        0.25        0.759259        0.740821        0        
C3        C        0.3125        0.759259        0.740821        0        
C3        C        0.375        0.759259        0.740821        0        
C3        C        0.4375        0.759259        0.740821        0        
C3        C        0.5        0.759259        0.740821        0        
C3        C        0.5625        0.759259        0.740821        0        
C3        C        0.625        0.759259        0.740821        0        
C3        C        0.6875        0.759259        0.740821        0        
C3        C        0.75        0.759259        0.740821        0        
C3        C        0.8125        0.759259        0.740821        0        
C3        C        0.875        0.759259        0.740821        0        
C3        C        0.9375        0.759259        0.740821        0        
C4        C        0.03125        0.703703        0.740821        0        
C4        C        0.09375        0.703703        0.740821        0        
C4        C        0.15625        0.703703        0.740821        0        
C4        C        0.21875        0.703703        0.740821        0        
C4        C        0.28125        0.703703        0.740821        0        
C4        C        0.34375        0.703703        0.740821        0        
C4        C        0.40625        0.703703        0.740821        0        
C4        C        0.46875        0.703703        0.740821        0        
C4        C        0.53125        0.703703        0.740821        0        
C4        C        0.59375        0.703703        0.740821        0        
C4        C        0.65625        0.703703        0.740821        0        
C4        C        0.71875        0.703703        0.740821        0        
C4        C        0.78125        0.703703        0.740821        0        
C4        C        0.84375        0.703703        0.740821        0        
C4        C        0.90625        0.703703        0.740821        0        
C4        C        0.96875        0.703703        0.740821        0        
C1        C        0.0        0.796297        0.740821        0        
C1        C        0.0625        0.796297        0.740821        0        
C1        C        0.125        0.796297        0.740821        0        
C1        C        0.1875        0.796297        0.740821        0        
C1        C        0.25        0.796297        0.740821        0        
C1        C        0.3125        0.796297        0.740821        0        
C1        C        0.375        0.796297        0.740821        0        
C1        C        0.4375        0.796297        0.740821        0        
C1        C        0.5        0.796297        0.740821        0        
C1        C        0.5625        0.796297        0.740821        0        
C1        C        0.625        0.796297        0.740821        0        
C1        C        0.6875        0.796297        0.740821        0        
C1        C        0.75        0.796297        0.740821        0        
C1        C        0.8125        0.796297        0.740821        0        
C1        C        0.875        0.796297        0.740821        0        
C1        C        0.9375        0.796297        0.740821        0        
C2        C        0.03125        0.851852        0.740821        0        
C2        C        0.09375        0.851852        0.740821        0        
C2        C        0.15625        0.851852        0.740821        0        
C2        C        0.21875        0.851852        0.740821        0        
C2        C        0.28125        0.851852        0.740821        0        
C2        C        0.34375        0.851852        0.740821        0        
C2        C        0.40625        0.851852        0.740821        0        
C2        C        0.46875        0.851852        0.740821        0        
C2        C        0.53125        0.851852        0.740821        0        
C2        C        0.59375        0.851852        0.740821        0        
C2        C        0.65625        0.851852        0.740821        0        
C2        C        0.71875        0.851852        0.740821        0        
C2        C        0.78125        0.851852        0.740821        0        
C2        C        0.84375        0.851852        0.740821        0        
C2        C        0.90625        0.851852        0.740821        0        
C2        C        0.96875        0.851852        0.740821        0        
C3        C        0.0        0.87037        0.740821        0        
C3        C        0.0625        0.87037        0.740821        0        
C3        C        0.125        0.87037        0.740821        0        
C3        C        0.1875        0.87037        0.740821        0        
C3        C        0.25        0.87037        0.740821        0        
C3        C        0.3125        0.87037        0.740821        0        
C3        C        0.375        0.87037        0.740821        0        
C3        C        0.4375        0.87037        0.740821        0        
C3        C        0.5        0.87037        0.740821        0        
C3        C        0.5625        0.87037        0.740821        0        
C3        C        0.625        0.87037        0.740821        0        
C3        C        0.6875        0.87037        0.740821        0        
C3        C        0.75        0.87037        0.740821        0        
C3        C        0.8125        0.87037        0.740821        0        
C3        C        0.875        0.87037        0.740821        0        
C3        C        0.9375        0.87037        0.740821        0        
C4        C        0.03125        0.814814        0.740821        0        
C4        C        0.09375        0.814814        0.740821        0        
C4        C        0.15625        0.814814        0.740821        0        
C4        C        0.21875        0.814814        0.740821        0        
C4        C        0.28125        0.814814        0.740821        0        
C4        C        0.34375        0.814814        0.740821        0        
C4        C        0.40625        0.814814        0.740821        0        
C4        C        0.46875        0.814814        0.740821        0        
C4        C        0.53125        0.814814        0.740821        0        
C4        C        0.59375        0.814814        0.740821        0        
C4        C        0.65625        0.814814        0.740821        0        
C4        C        0.71875        0.814814        0.740821        0        
C4        C        0.78125        0.814814        0.740821        0        
C4        C        0.84375        0.814814        0.740821        0        
C4        C        0.90625        0.814814        0.740821        0        
C4        C        0.96875        0.814814        0.740821        0        
C1        C        0.0        0.907408        0.740821        0        
C1        C        0.0625        0.907408        0.740821        0        
C1        C        0.125        0.907408        0.740821        0        
C1        C        0.1875        0.907408        0.740821        0        
C1        C        0.25        0.907408        0.740821        0        
C1        C        0.3125        0.907408        0.740821        0        
C1        C        0.375        0.907408        0.740821        0        
C1        C        0.4375        0.907408        0.740821        0        
C1        C        0.5        0.907408        0.740821        0        
C1        C        0.5625        0.907408        0.740821        0        
C1        C        0.625        0.907408        0.740821        0        
C1        C        0.6875        0.907408        0.740821        0        
C1        C        0.75        0.907408        0.740821        0        
C1        C        0.8125        0.907408        0.740821        0        
C1        C        0.875        0.907408        0.740821        0        
C1        C        0.9375        0.907408        0.740821        0        
C2        C        0.03125        0.962963        0.740821        0        
C2        C        0.09375        0.962963        0.740821        0        
C2        C        0.15625        0.962963        0.740821        0        
C2        C        0.21875        0.962963        0.740821        0        
C2        C        0.28125        0.962963        0.740821        0        
C2        C        0.34375        0.962963        0.740821        0        
C2        C        0.40625        0.962963        0.740821        0        
C2        C        0.46875        0.962963        0.740821        0        
C2        C        0.53125        0.962963        0.740821        0        
C2        C        0.59375        0.962963        0.740821        0        
C2        C        0.65625        0.962963        0.740821        0        
C2        C        0.71875        0.962963        0.740821        0        
C2        C        0.78125        0.962963        0.740821        0        
C2        C        0.84375        0.962963        0.740821        0        
C2        C        0.90625        0.962963        0.740821        0        
C2        C        0.96875        0.962963        0.740821        0        
C3        C        0.0        0.981481        0.740821        0        
C3        C        0.0625        0.981481        0.740821        0        
C3        C        0.125        0.981481        0.740821        0        
C3        C        0.1875        0.981481        0.740821        0        
C3        C        0.25        0.981481        0.740821        0        
C3        C        0.3125        0.981481        0.740821        0        
C3        C        0.375        0.981481        0.740821        0        
C3        C        0.4375        0.981481        0.740821        0        
C3        C        0.5        0.981481        0.740821        0        
C3        C        0.5625        0.981481        0.740821        0        
C3        C        0.625        0.981481        0.740821        0        
C3        C        0.6875        0.981481        0.740821        0        
C3        C        0.75        0.981481        0.740821        0        
C3        C        0.8125        0.981481        0.740821        0        
C3        C        0.875        0.981481        0.740821        0        
C3        C        0.9375        0.981481        0.740821        0        
C4        C        0.03125        0.925925        0.740821        0        
C4        C        0.09375        0.925925        0.740821        0        
C4        C        0.15625        0.925925        0.740821        0        
C4        C        0.21875        0.925925        0.740821        0        
C4        C        0.28125        0.925925        0.740821        0        
C4        C        0.34375        0.925925        0.740821        0        
C4        C        0.40625        0.925925        0.740821        0        
C4        C        0.46875        0.925925        0.740821        0        
C4        C        0.53125        0.925925        0.740821        0        
C4        C        0.59375        0.925925        0.740821        0        
C4        C        0.65625        0.925925        0.740821        0        
C4        C        0.71875        0.925925        0.740821        0        
C4        C        0.78125        0.925925        0.740821        0        
C4        C        0.84375        0.925925        0.740821        0        
C4        C        0.90625        0.925925        0.740821        0        
C4        C        0.96875        0.925925        0.740821        0        
