data_graphite_ortho

_audit_creation_method RASPA-1.0
_audit_creation_date 2012-2-3
_audit_author_name 'David Dubbeldam'

_cell_length_a    22.14    
_cell_length_b    38.34    
_cell_length_c    28.9    
_cell_angle_alpha 90
_cell_angle_beta  90
_cell_angle_gamma 90
_cell_volume      24531.70      

_symmetry_cell_setting          triclinic
_symmetry_space_group_name_Hall 'P 1'
_symmetry_space_group_name_H-M  'P 1'
_symmetry_Int_Tables_number     1

_symmetry_equiv_pos_as_xyz 'x,y,z'

loop_
_atom_site_label
_atom_site_type_symbol
_atom_site_fract_x
_atom_site_fract_y
_atom_site_fract_z
_atom_site_charge
C1        C        0.0        0.018519        0.0        0        
C2        C        0.055556        0.074075        0.0        0        
C3        C        0.0        0.092592        0.0        0        
C4        C        0.055556        0.037037        0.0        0        
C1        C        0.0        0.12963        0.0        0        
C2        C        0.055556        0.185185        0.0        0        
C3        C        0.0        0.203703        0.0        0        
C4        C        0.055556        0.148148        0.0        0        
C1        C        0.0        0.24074099999999998        0.0        0        
C2        C        0.055556        0.296297        0.0        0        
C3        C        0.0        0.314815        0.0        0        
C4        C        0.055556        0.259259        0.0        0        
C1        C        0.0        0.351852        0.0        0        
C2        C        0.055556        0.407408        0.0        0        
C3        C        0.0        0.42592500000000005        0.0        0        
C4        C        0.055556        0.37037        0.0        0        
C1        C        0.0        0.46296300000000007        0.0        0        
C2        C        0.055556        0.518519        0.0        0        
C3        C        0.0        0.537037        0.0        0        
C4        C        0.055556        0.481481        0.0        0        
C1        C        0.0        0.574075        0.0        0        
C2        C        0.055556        0.62963        0.0        0        
C3        C        0.0        0.648148        0.0        0        
C4        C        0.055556        0.592592        0.0        0        
C1        C        0.11111100000000002        0.018519        0.0        0        
C2        C        0.166667        0.074075        0.0        0        
C3        C        0.11111100000000002        0.092592        0.0        0        
C4        C        0.166667        0.037037        0.0        0        
C1        C        0.11111100000000002        0.12963        0.0        0        
C2        C        0.166667        0.185185        0.0        0        
C3        C        0.11111100000000002        0.203703        0.0        0        
C4        C        0.166667        0.148148        0.0        0        
C1        C        0.11111100000000002        0.24074099999999998        0.0        0        
C2        C        0.166667        0.296297        0.0        0        
C3        C        0.11111100000000002        0.314815        0.0        0        
C4        C        0.166667        0.259259        0.0        0        
C1        C        0.11111100000000002        0.351852        0.0        0        
C2        C        0.166667        0.407408        0.0        0        
C3        C        0.11111100000000002        0.42592500000000005        0.0        0        
C4        C        0.166667        0.37037        0.0        0        
C1        C        0.11111100000000002        0.46296300000000007        0.0        0        
C2        C        0.166667        0.518519        0.0        0        
C3        C        0.11111100000000002        0.537037        0.0        0        
C4        C        0.166667        0.481481        0.0        0        
C1        C        0.11111100000000002        0.574075        0.0        0        
C2        C        0.166667        0.62963        0.0        0        
C3        C        0.11111100000000002        0.648148        0.0        0        
C4        C        0.166667        0.592592        0.0        0        
C1        C        0.22222200000000003        0.018519        0.0        0        
C2        C        0.277778        0.074075        0.0        0        
C3        C        0.22222200000000003        0.092592        0.0        0        
C4        C        0.277778        0.037037        0.0        0        
C1        C        0.22222200000000003        0.12963        0.0        0        
C2        C        0.277778        0.185185        0.0        0        
C3        C        0.22222200000000003        0.203703        0.0        0        
C4        C        0.277778        0.148148        0.0        0        
C1        C        0.22222200000000003        0.24074099999999998        0.0        0        
C2        C        0.277778        0.296297        0.0        0        
C3        C        0.22222200000000003        0.314815        0.0        0        
C4        C        0.277778        0.259259        0.0        0        
C1        C        0.22222200000000003        0.351852        0.0        0        
C2        C        0.277778        0.407408        0.0        0        
C3        C        0.22222200000000003        0.42592500000000005        0.0        0        
C4        C        0.277778        0.37037        0.0        0        
C1        C        0.22222200000000003        0.46296300000000007        0.0        0        
C2        C        0.277778        0.518519        0.0        0        
C3        C        0.22222200000000003        0.537037        0.0        0        
C4        C        0.277778        0.481481        0.0        0        
C1        C        0.22222200000000003        0.574075        0.0        0        
C2        C        0.277778        0.62963        0.0        0        
C3        C        0.22222200000000003        0.648148        0.0        0        
C4        C        0.277778        0.592592        0.0        0        
C1        C        0.333333        0.018519        0.0        0        
C2        C        0.388889        0.074075        0.0        0        
C3        C        0.333333        0.092592        0.0        0        
C4        C        0.388889        0.037037        0.0        0        
C1        C        0.333333        0.12963        0.0        0        
C2        C        0.388889        0.185185        0.0        0        
C3        C        0.333333        0.203703        0.0        0        
C4        C        0.388889        0.148148        0.0        0        
C1        C        0.333333        0.24074099999999998        0.0        0        
C2        C        0.388889        0.296297        0.0        0        
C3        C        0.333333        0.314815        0.0        0        
C4        C        0.388889        0.259259        0.0        0        
C1        C        0.333333        0.351852        0.0        0        
C2        C        0.388889        0.407408        0.0        0        
C3        C        0.333333        0.42592500000000005        0.0        0        
C4        C        0.388889        0.37037        0.0        0        
C1        C        0.333333        0.46296300000000007        0.0        0        
C2        C        0.388889        0.518519        0.0        0        
C3        C        0.333333        0.537037        0.0        0        
C4        C        0.388889        0.481481        0.0        0        
C1        C        0.333333        0.574075        0.0        0        
C2        C        0.388889        0.62963        0.0        0        
C3        C        0.333333        0.648148        0.0        0        
C4        C        0.388889        0.592592        0.0        0        
C1        C        0.44444400000000006        0.018519        0.0        0        
C2        C        0.5        0.074075        0.0        0        
C3        C        0.44444400000000006        0.092592        0.0        0        
C4        C        0.5        0.037037        0.0        0        
C1        C        0.44444400000000006        0.12963        0.0        0        
C2        C        0.5        0.185185        0.0        0        
C3        C        0.44444400000000006        0.203703        0.0        0        
C4        C        0.5        0.148148        0.0        0        
C1        C        0.44444400000000006        0.24074099999999998        0.0        0        
C2        C        0.5        0.296297        0.0        0        
C3        C        0.44444400000000006        0.314815        0.0        0        
C4        C        0.5        0.259259        0.0        0        
C1        C        0.44444400000000006        0.351852        0.0        0        
C2        C        0.5        0.407408        0.0        0        
C3        C        0.44444400000000006        0.42592500000000005        0.0        0        
C4        C        0.5        0.37037        0.0        0        
C1        C        0.44444400000000006        0.46296300000000007        0.0        0        
C2        C        0.5        0.518519        0.0        0        
C3        C        0.44444400000000006        0.537037        0.0        0        
C4        C        0.5        0.481481        0.0        0        
C1        C        0.44444400000000006        0.574075        0.0        0        
C2        C        0.5        0.62963        0.0        0        
C3        C        0.44444400000000006        0.648148        0.0        0        
C4        C        0.5        0.592592        0.0        0        
C1        C        0.555556        0.018519        0.0        0        
C2        C        0.611111        0.074075        0.0        0        
C3        C        0.555556        0.092592        0.0        0        
C4        C        0.611111        0.037037        0.0        0        
C1        C        0.555556        0.12963        0.0        0        
C2        C        0.611111        0.185185        0.0        0        
C3        C        0.555556        0.203703        0.0        0        
C4        C        0.611111        0.148148        0.0        0        
C1        C        0.555556        0.24074099999999998        0.0        0        
C2        C        0.611111        0.296297        0.0        0        
C3        C        0.555556        0.314815        0.0        0        
C4        C        0.611111        0.259259        0.0        0        
C1        C        0.555556        0.351852        0.0        0        
C2        C        0.611111        0.407408        0.0        0        
C3        C        0.555556        0.42592500000000005        0.0        0        
C4        C        0.611111        0.37037        0.0        0        
C1        C        0.555556        0.46296300000000007        0.0        0        
C2        C        0.611111        0.518519        0.0        0        
C3        C        0.555556        0.537037        0.0        0        
C4        C        0.611111        0.481481        0.0        0        
C1        C        0.555556        0.574075        0.0        0        
C2        C        0.611111        0.62963        0.0        0        
C3        C        0.555556        0.648148        0.0        0        
C4        C        0.611111        0.592592        0.0        0        
C1        C        0.666667        0.018519        0.0        0        
C2        C        0.722222        0.074075        0.0        0        
C3        C        0.666667        0.092592        0.0        0        
C4        C        0.722222        0.037037        0.0        0        
C1        C        0.666667        0.12963        0.0        0        
C2        C        0.722222        0.185185        0.0        0        
C3        C        0.666667        0.203703        0.0        0        
C4        C        0.722222        0.148148        0.0        0        
C1        C        0.666667        0.24074099999999998        0.0        0        
C2        C        0.722222        0.296297        0.0        0        
C3        C        0.666667        0.314815        0.0        0        
C4        C        0.722222        0.259259        0.0        0        
C1        C        0.666667        0.351852        0.0        0        
C2        C        0.722222        0.407408        0.0        0        
C3        C        0.666667        0.42592500000000005        0.0        0        
C4        C        0.722222        0.37037        0.0        0        
C1        C        0.666667        0.46296300000000007        0.0        0        
C2        C        0.722222        0.518519        0.0        0        
C3        C        0.666667        0.537037        0.0        0        
C4        C        0.722222        0.481481        0.0        0        
C1        C        0.666667        0.574075        0.0        0        
C2        C        0.722222        0.62963        0.0        0        
C3        C        0.666667        0.648148        0.0        0        
C4        C        0.722222        0.592592        0.0        0        
C1        C        0.777778        0.018519        0.0        0        
C2        C        0.833333        0.074075        0.0        0        
C3        C        0.777778        0.092592        0.0        0        
C4        C        0.833333        0.037037        0.0        0        
C1        C        0.777778        0.12963        0.0        0        
C2        C        0.833333        0.185185        0.0        0        
C3        C        0.777778        0.203703        0.0        0        
C4        C        0.833333        0.148148        0.0        0        
C1        C        0.777778        0.24074099999999998        0.0        0        
C2        C        0.833333        0.296297        0.0        0        
C3        C        0.777778        0.314815        0.0        0        
C4        C        0.833333        0.259259        0.0        0        
C1        C        0.777778        0.351852        0.0        0        
C2        C        0.833333        0.407408        0.0        0        
C3        C        0.777778        0.42592500000000005        0.0        0        
C4        C        0.833333        0.37037        0.0        0        
C1        C        0.777778        0.46296300000000007        0.0        0        
C2        C        0.833333        0.518519        0.0        0        
C3        C        0.777778        0.537037        0.0        0        
C4        C        0.833333        0.481481        0.0        0        
C1        C        0.777778        0.574075        0.0        0        
C2        C        0.833333        0.62963        0.0        0        
C3        C        0.777778        0.648148        0.0        0        
C4        C        0.833333        0.592592        0.0        0        
C1        C        0.888889        0.018519        0.0        0        
C2        C        0.944444        0.074075        0.0        0        
C3        C        0.888889        0.092592        0.0        0        
C4        C        0.944444        0.037037        0.0        0        
C1        C        0.888889        0.12963        0.0        0        
C2        C        0.944444        0.185185        0.0        0        
C3        C        0.888889        0.203703        0.0        0        
C4        C        0.944444        0.148148        0.0        0        
C1        C        0.888889        0.24074099999999998        0.0        0        
C2        C        0.944444        0.296297        0.0        0        
C3        C        0.888889        0.314815        0.0        0        
C4        C        0.944444        0.259259        0.0        0        
C1        C        0.888889        0.351852        0.0        0        
C2        C        0.944444        0.407408        0.0        0        
C3        C        0.888889        0.42592500000000005        0.0        0        
C4        C        0.944444        0.37037        0.0        0        
C1        C        0.888889        0.46296300000000007        0.0        0        
C2        C        0.944444        0.518519        0.0        0        
C3        C        0.888889        0.537037        0.0        0        
C4        C        0.944444        0.481481        0.0        0        
C1        C        0.888889        0.574075        0.0        0        
C2        C        0.944444        0.62963        0.0        0        
C3        C        0.888889        0.648148        0.0        0        
C4        C        0.944444        0.592592        0.0        0        
C1        C        0.0        0.685186        0.0        0        
C1        C        0.11111100000000002        0.685186        0.0        0        
C1        C        0.22222200000000003        0.685186        0.0        0        
C1        C        0.333333        0.685186        0.0        0        
C1        C        0.44444400000000006        0.685186        0.0        0        
C1        C        0.555556        0.685186        0.0        0        
C1        C        0.666667        0.685186        0.0        0        
C1        C        0.777778        0.685186        0.0        0        
C1        C        0.888889        0.685186        0.0        0        
C2        C        0.055556        0.740741        0.0        0        
C2        C        0.166667        0.740741        0.0        0        
C2        C        0.277778        0.740741        0.0        0        
C2        C        0.388889        0.740741        0.0        0        
C2        C        0.5        0.740741        0.0        0        
C2        C        0.611111        0.740741        0.0        0        
C2        C        0.722222        0.740741        0.0        0        
C2        C        0.833333        0.740741        0.0        0        
C2        C        0.944444        0.740741        0.0        0        
C3        C        0.0        0.759259        0.0        0        
C3        C        0.11111100000000002        0.759259        0.0        0        
C3        C        0.22222200000000003        0.759259        0.0        0        
C3        C        0.333333        0.759259        0.0        0        
C3        C        0.44444400000000006        0.759259        0.0        0        
C3        C        0.555556        0.759259        0.0        0        
C3        C        0.666667        0.759259        0.0        0        
C3        C        0.777778        0.759259        0.0        0        
C3        C        0.888889        0.759259        0.0        0        
C4        C        0.055556        0.703703        0.0        0        
C4        C        0.166667        0.703703        0.0        0        
C4        C        0.277778        0.703703        0.0        0        
C4        C        0.388889        0.703703        0.0        0        
C4        C        0.5        0.703703        0.0        0        
C4        C        0.611111        0.703703        0.0        0        
C4        C        0.722222        0.703703        0.0        0        
C4        C        0.833333        0.703703        0.0        0        
C4        C        0.944444        0.703703        0.0        0        
C1        C        0.0        0.796297        0.0        0        
C1        C        0.11111100000000002        0.796297        0.0        0        
C1        C        0.22222200000000003        0.796297        0.0        0        
C1        C        0.333333        0.796297        0.0        0        
C1        C        0.44444400000000006        0.796297        0.0        0        
C1        C        0.555556        0.796297        0.0        0        
C1        C        0.666667        0.796297        0.0        0        
C1        C        0.777778        0.796297        0.0        0        
C1        C        0.888889        0.796297        0.0        0        
C2        C        0.055556        0.851852        0.0        0        
C2        C        0.166667        0.851852        0.0        0        
C2        C        0.277778        0.851852        0.0        0        
C2        C        0.388889        0.851852        0.0        0        
C2        C        0.5        0.851852        0.0        0        
C2        C        0.611111        0.851852        0.0        0        
C2        C        0.722222        0.851852        0.0        0        
C2        C        0.833333        0.851852        0.0        0        
C2        C        0.944444        0.851852        0.0        0        
C3        C        0.0        0.87037        0.0        0        
C3        C        0.11111100000000002        0.87037        0.0        0        
C3        C        0.22222200000000003        0.87037        0.0        0        
C3        C        0.333333        0.87037        0.0        0        
C3        C        0.44444400000000006        0.87037        0.0        0        
C3        C        0.555556        0.87037        0.0        0        
C3        C        0.666667        0.87037        0.0        0        
C3        C        0.777778        0.87037        0.0        0        
C3        C        0.888889        0.87037        0.0        0        
C4        C        0.055556        0.814814        0.0        0        
C4        C        0.166667        0.814814        0.0        0        
C4        C        0.277778        0.814814        0.0        0        
C4        C        0.388889        0.814814        0.0        0        
C4        C        0.5        0.814814        0.0        0        
C4        C        0.611111        0.814814        0.0        0        
C4        C        0.722222        0.814814        0.0        0        
C4        C        0.833333        0.814814        0.0        0        
C4        C        0.944444        0.814814        0.0        0        
C1        C        0.0        0.907408        0.0        0        
C1        C        0.11111100000000002        0.907408        0.0        0        
C1        C        0.22222200000000003        0.907408        0.0        0        
C1        C        0.333333        0.907408        0.0        0        
C1        C        0.44444400000000006        0.907408        0.0        0        
C1        C        0.555556        0.907408        0.0        0        
C1        C        0.666667        0.907408        0.0        0        
C1        C        0.777778        0.907408        0.0        0        
C1        C        0.888889        0.907408        0.0        0        
C2        C        0.055556        0.962963        0.0        0        
C2        C        0.166667        0.962963        0.0        0        
C2        C        0.277778        0.962963        0.0        0        
C2        C        0.388889        0.962963        0.0        0        
C2        C        0.5        0.962963        0.0        0        
C2        C        0.611111        0.962963        0.0        0        
C2        C        0.722222        0.962963        0.0        0        
C2        C        0.833333        0.962963        0.0        0        
C2        C        0.944444        0.962963        0.0        0        
C3        C        0.0        0.9814809999999999        0.0        0        
C3        C        0.11111100000000002        0.9814809999999999        0.0        0        
C3        C        0.22222200000000003        0.9814809999999999        0.0        0        
C3        C        0.333333        0.9814809999999999        0.0        0        
C3        C        0.44444400000000006        0.9814809999999999        0.0        0        
C3        C        0.555556        0.9814809999999999        0.0        0        
C3        C        0.666667        0.9814809999999999        0.0        0        
C3        C        0.777778        0.9814809999999999        0.0        0        
C3        C        0.888889        0.9814809999999999        0.0        0        
C4        C        0.055556        0.925925        0.0        0        
C4        C        0.166667        0.925925        0.0        0        
C4        C        0.277778        0.925925        0.0        0        
C4        C        0.388889        0.925925        0.0        0        
C4        C        0.5        0.925925        0.0        0        
C4        C        0.611111        0.925925        0.0        0        
C4        C        0.722222        0.925925        0.0        0        
C4        C        0.833333        0.925925        0.0        0        
C4        C        0.944444        0.925925        0.0        0        
C1        C        0.0        0.018519        0.115917        0        
C2        C        0.055556        0.074075        0.115917        0        
C3        C        0.0        0.092592        0.115917        0        
C4        C        0.055556        0.037037        0.115917        0        
C1        C        0.0        0.12963        0.115917        0        
C2        C        0.055556        0.185185        0.115917        0        
C3        C        0.0        0.203703        0.115917        0        
C4        C        0.055556        0.148148        0.115917        0        
C1        C        0.0        0.24074099999999998        0.115917        0        
C2        C        0.055556        0.296297        0.115917        0        
C3        C        0.0        0.314815        0.115917        0        
C4        C        0.055556        0.259259        0.115917        0        
C1        C        0.0        0.351852        0.115917        0        
C2        C        0.055556        0.407408        0.115917        0        
C3        C        0.0        0.42592500000000005        0.115917        0        
C4        C        0.055556        0.37037        0.115917        0        
C1        C        0.0        0.46296300000000007        0.115917        0        
C2        C        0.055556        0.518519        0.115917        0        
C3        C        0.0        0.537037        0.115917        0        
C4        C        0.055556        0.481481        0.115917        0        
C1        C        0.0        0.574075        0.115917        0        
C2        C        0.055556        0.62963        0.115917        0        
C3        C        0.0        0.648148        0.115917        0        
C4        C        0.055556        0.592592        0.115917        0        
C1        C        0.11111100000000002        0.018519        0.115917        0        
C2        C        0.166667        0.074075        0.115917        0        
C3        C        0.11111100000000002        0.092592        0.115917        0        
C4        C        0.166667        0.037037        0.115917        0        
C1        C        0.11111100000000002        0.12963        0.115917        0        
C2        C        0.166667        0.185185        0.115917        0        
C3        C        0.11111100000000002        0.203703        0.115917        0        
C4        C        0.166667        0.148148        0.115917        0        
C1        C        0.11111100000000002        0.24074099999999998        0.115917        0        
C2        C        0.166667        0.296297        0.115917        0        
C3        C        0.11111100000000002        0.314815        0.115917        0        
C4        C        0.166667        0.259259        0.115917        0        
C1        C        0.11111100000000002        0.351852        0.115917        0        
C2        C        0.166667        0.407408        0.115917        0        
C3        C        0.11111100000000002        0.42592500000000005        0.115917        0        
C4        C        0.166667        0.37037        0.115917        0        
C1        C        0.11111100000000002        0.46296300000000007        0.115917        0        
C2        C        0.166667        0.518519        0.115917        0        
C3        C        0.11111100000000002        0.537037        0.115917        0        
C4        C        0.166667        0.481481        0.115917        0        
C1        C        0.11111100000000002        0.574075        0.115917        0        
C2        C        0.166667        0.62963        0.115917        0        
C3        C        0.11111100000000002        0.648148        0.115917        0        
C4        C        0.166667        0.592592        0.115917        0        
C1        C        0.22222200000000003        0.018519        0.115917        0        
C2        C        0.277778        0.074075        0.115917        0        
C3        C        0.22222200000000003        0.092592        0.115917        0        
C4        C        0.277778        0.037037        0.115917        0        
C1        C        0.22222200000000003        0.12963        0.115917        0        
C2        C        0.277778        0.185185        0.115917        0        
C3        C        0.22222200000000003        0.203703        0.115917        0        
C4        C        0.277778        0.148148        0.115917        0        
C1        C        0.22222200000000003        0.24074099999999998        0.115917        0        
C2        C        0.277778        0.296297        0.115917        0        
C3        C        0.22222200000000003        0.314815        0.115917        0        
C4        C        0.277778        0.259259        0.115917        0        
C1        C        0.22222200000000003        0.351852        0.115917        0        
C2        C        0.277778        0.407408        0.115917        0        
C3        C        0.22222200000000003        0.42592500000000005        0.115917        0        
C4        C        0.277778        0.37037        0.115917        0        
C1        C        0.22222200000000003        0.46296300000000007        0.115917        0        
C2        C        0.277778        0.518519        0.115917        0        
C3        C        0.22222200000000003        0.537037        0.115917        0        
C4        C        0.277778        0.481481        0.115917        0        
C1        C        0.22222200000000003        0.574075        0.115917        0        
C2        C        0.277778        0.62963        0.115917        0        
C3        C        0.22222200000000003        0.648148        0.115917        0        
C4        C        0.277778        0.592592        0.115917        0        
C1        C        0.333333        0.018519        0.115917        0        
C2        C        0.388889        0.074075        0.115917        0        
C3        C        0.333333        0.092592        0.115917        0        
C4        C        0.388889        0.037037        0.115917        0        
C1        C        0.333333        0.12963        0.115917        0        
C2        C        0.388889        0.185185        0.115917        0        
C3        C        0.333333        0.203703        0.115917        0        
C4        C        0.388889        0.148148        0.115917        0        
C1        C        0.333333        0.24074099999999998        0.115917        0        
C2        C        0.388889        0.296297        0.115917        0        
C3        C        0.333333        0.314815        0.115917        0        
C4        C        0.388889        0.259259        0.115917        0        
C1        C        0.333333        0.351852        0.115917        0        
C2        C        0.388889        0.407408        0.115917        0        
C3        C        0.333333        0.42592500000000005        0.115917        0        
C4        C        0.388889        0.37037        0.115917        0        
C1        C        0.333333        0.46296300000000007        0.115917        0        
C2        C        0.388889        0.518519        0.115917        0        
C3        C        0.333333        0.537037        0.115917        0        
C4        C        0.388889        0.481481        0.115917        0        
C1        C        0.333333        0.574075        0.115917        0        
C2        C        0.388889        0.62963        0.115917        0        
C3        C        0.333333        0.648148        0.115917        0        
C4        C        0.388889        0.592592        0.115917        0        
C1        C        0.44444400000000006        0.018519        0.115917        0        
C2        C        0.5        0.074075        0.115917        0        
C3        C        0.44444400000000006        0.092592        0.115917        0        
C4        C        0.5        0.037037        0.115917        0        
C1        C        0.44444400000000006        0.12963        0.115917        0        
C2        C        0.5        0.185185        0.115917        0        
C3        C        0.44444400000000006        0.203703        0.115917        0        
C4        C        0.5        0.148148        0.115917        0        
C1        C        0.44444400000000006        0.24074099999999998        0.115917        0        
C2        C        0.5        0.296297        0.115917        0        
C3        C        0.44444400000000006        0.314815        0.115917        0        
C4        C        0.5        0.259259        0.115917        0        
C1        C        0.44444400000000006        0.351852        0.115917        0        
C2        C        0.5        0.407408        0.115917        0        
C3        C        0.44444400000000006        0.42592500000000005        0.115917        0        
C4        C        0.5        0.37037        0.115917        0        
C1        C        0.44444400000000006        0.46296300000000007        0.115917        0        
C2        C        0.5        0.518519        0.115917        0        
C3        C        0.44444400000000006        0.537037        0.115917        0        
C4        C        0.5        0.481481        0.115917        0        
C1        C        0.44444400000000006        0.574075        0.115917        0        
C2        C        0.5        0.62963        0.115917        0        
C3        C        0.44444400000000006        0.648148        0.115917        0        
C4        C        0.5        0.592592        0.115917        0        
C1        C        0.555556        0.018519        0.115917        0        
C2        C        0.611111        0.074075        0.115917        0        
C3        C        0.555556        0.092592        0.115917        0        
C4        C        0.611111        0.037037        0.115917        0        
C1        C        0.555556        0.12963        0.115917        0        
C2        C        0.611111        0.185185        0.115917        0        
C3        C        0.555556        0.203703        0.115917        0        
C4        C        0.611111        0.148148        0.115917        0        
C1        C        0.555556        0.24074099999999998        0.115917        0        
C2        C        0.611111        0.296297        0.115917        0        
C3        C        0.555556        0.314815        0.115917        0        
C4        C        0.611111        0.259259        0.115917        0        
C1        C        0.555556        0.351852        0.115917        0        
C2        C        0.611111        0.407408        0.115917        0        
C3        C        0.555556        0.42592500000000005        0.115917        0        
C4        C        0.611111        0.37037        0.115917        0        
C1        C        0.555556        0.46296300000000007        0.115917        0        
C2        C        0.611111        0.518519        0.115917        0        
C3        C        0.555556        0.537037        0.115917        0        
C4        C        0.611111        0.481481        0.115917        0        
C1        C        0.555556        0.574075        0.115917        0        
C2        C        0.611111        0.62963        0.115917        0        
C3        C        0.555556        0.648148        0.115917        0        
C4        C        0.611111        0.592592        0.115917        0        
C1        C        0.666667        0.018519        0.115917        0        
C2        C        0.722222        0.074075        0.115917        0        
C3        C        0.666667        0.092592        0.115917        0        
C4        C        0.722222        0.037037        0.115917        0        
C1        C        0.666667        0.12963        0.115917        0        
C2        C        0.722222        0.185185        0.115917        0        
C3        C        0.666667        0.203703        0.115917        0        
C4        C        0.722222        0.148148        0.115917        0        
C1        C        0.666667        0.24074099999999998        0.115917        0        
C2        C        0.722222        0.296297        0.115917        0        
C3        C        0.666667        0.314815        0.115917        0        
C4        C        0.722222        0.259259        0.115917        0        
C1        C        0.666667        0.351852        0.115917        0        
C2        C        0.722222        0.407408        0.115917        0        
C3        C        0.666667        0.42592500000000005        0.115917        0        
C4        C        0.722222        0.37037        0.115917        0        
C1        C        0.666667        0.46296300000000007        0.115917        0        
C2        C        0.722222        0.518519        0.115917        0        
C3        C        0.666667        0.537037        0.115917        0        
C4        C        0.722222        0.481481        0.115917        0        
C1        C        0.666667        0.574075        0.115917        0        
C2        C        0.722222        0.62963        0.115917        0        
C3        C        0.666667        0.648148        0.115917        0        
C4        C        0.722222        0.592592        0.115917        0        
C1        C        0.777778        0.018519        0.115917        0        
C2        C        0.833333        0.074075        0.115917        0        
C3        C        0.777778        0.092592        0.115917        0        
C4        C        0.833333        0.037037        0.115917        0        
C1        C        0.777778        0.12963        0.115917        0        
C2        C        0.833333        0.185185        0.115917        0        
C3        C        0.777778        0.203703        0.115917        0        
C4        C        0.833333        0.148148        0.115917        0        
C1        C        0.777778        0.24074099999999998        0.115917        0        
C2        C        0.833333        0.296297        0.115917        0        
C3        C        0.777778        0.314815        0.115917        0        
C4        C        0.833333        0.259259        0.115917        0        
C1        C        0.777778        0.351852        0.115917        0        
C2        C        0.833333        0.407408        0.115917        0        
C3        C        0.777778        0.42592500000000005        0.115917        0        
C4        C        0.833333        0.37037        0.115917        0        
C1        C        0.777778        0.46296300000000007        0.115917        0        
C2        C        0.833333        0.518519        0.115917        0        
C3        C        0.777778        0.537037        0.115917        0        
C4        C        0.833333        0.481481        0.115917        0        
C1        C        0.777778        0.574075        0.115917        0        
C2        C        0.833333        0.62963        0.115917        0        
C3        C        0.777778        0.648148        0.115917        0        
C4        C        0.833333        0.592592        0.115917        0        
C1        C        0.888889        0.018519        0.115917        0        
C2        C        0.944444        0.074075        0.115917        0        
C3        C        0.888889        0.092592        0.115917        0        
C4        C        0.944444        0.037037        0.115917        0        
C1        C        0.888889        0.12963        0.115917        0        
C2        C        0.944444        0.185185        0.115917        0        
C3        C        0.888889        0.203703        0.115917        0        
C4        C        0.944444        0.148148        0.115917        0        
C1        C        0.888889        0.24074099999999998        0.115917        0        
C2        C        0.944444        0.296297        0.115917        0        
C3        C        0.888889        0.314815        0.115917        0        
C4        C        0.944444        0.259259        0.115917        0        
C1        C        0.888889        0.351852        0.115917        0        
C2        C        0.944444        0.407408        0.115917        0        
C3        C        0.888889        0.42592500000000005        0.115917        0        
C4        C        0.944444        0.37037        0.115917        0        
C1        C        0.888889        0.46296300000000007        0.115917        0        
C2        C        0.944444        0.518519        0.115917        0        
C3        C        0.888889        0.537037        0.115917        0        
C4        C        0.944444        0.481481        0.115917        0        
C1        C        0.888889        0.574075        0.115917        0        
C2        C        0.944444        0.62963        0.115917        0        
C3        C        0.888889        0.648148        0.115917        0        
C4        C        0.944444        0.592592        0.115917        0        
C1        C        0.0        0.685186        0.115917        0        
C1        C        0.11111100000000002        0.685186        0.115917        0        
C1        C        0.22222200000000003        0.685186        0.115917        0        
C1        C        0.333333        0.685186        0.115917        0        
C1        C        0.44444400000000006        0.685186        0.115917        0        
C1        C        0.555556        0.685186        0.115917        0        
C1        C        0.666667        0.685186        0.115917        0        
C1        C        0.777778        0.685186        0.115917        0        
C1        C        0.888889        0.685186        0.115917        0        
C2        C        0.055556        0.740741        0.115917        0        
C2        C        0.166667        0.740741        0.115917        0        
C2        C        0.277778        0.740741        0.115917        0        
C2        C        0.388889        0.740741        0.115917        0        
C2        C        0.5        0.740741        0.115917        0        
C2        C        0.611111        0.740741        0.115917        0        
C2        C        0.722222        0.740741        0.115917        0        
C2        C        0.833333        0.740741        0.115917        0        
C2        C        0.944444        0.740741        0.115917        0        
C3        C        0.0        0.759259        0.115917        0        
C3        C        0.11111100000000002        0.759259        0.115917        0        
C3        C        0.22222200000000003        0.759259        0.115917        0        
C3        C        0.333333        0.759259        0.115917        0        
C3        C        0.44444400000000006        0.759259        0.115917        0        
C3        C        0.555556        0.759259        0.115917        0        
C3        C        0.666667        0.759259        0.115917        0        
C3        C        0.777778        0.759259        0.115917        0        
C3        C        0.888889        0.759259        0.115917        0        
C4        C        0.055556        0.703703        0.115917        0        
C4        C        0.166667        0.703703        0.115917        0        
C4        C        0.277778        0.703703        0.115917        0        
C4        C        0.388889        0.703703        0.115917        0        
C4        C        0.5        0.703703        0.115917        0        
C4        C        0.611111        0.703703        0.115917        0        
C4        C        0.722222        0.703703        0.115917        0        
C4        C        0.833333        0.703703        0.115917        0        
C4        C        0.944444        0.703703        0.115917        0        
C1        C        0.0        0.796297        0.115917        0        
C1        C        0.11111100000000002        0.796297        0.115917        0        
C1        C        0.22222200000000003        0.796297        0.115917        0        
C1        C        0.333333        0.796297        0.115917        0        
C1        C        0.44444400000000006        0.796297        0.115917        0        
C1        C        0.555556        0.796297        0.115917        0        
C1        C        0.666667        0.796297        0.115917        0        
C1        C        0.777778        0.796297        0.115917        0        
C1        C        0.888889        0.796297        0.115917        0        
C2        C        0.055556        0.851852        0.115917        0        
C2        C        0.166667        0.851852        0.115917        0        
C2        C        0.277778        0.851852        0.115917        0        
C2        C        0.388889        0.851852        0.115917        0        
C2        C        0.5        0.851852        0.115917        0        
C2        C        0.611111        0.851852        0.115917        0        
C2        C        0.722222        0.851852        0.115917        0        
C2        C        0.833333        0.851852        0.115917        0        
C2        C        0.944444        0.851852        0.115917        0        
C3        C        0.0        0.87037        0.115917        0        
C3        C        0.11111100000000002        0.87037        0.115917        0        
C3        C        0.22222200000000003        0.87037        0.115917        0        
C3        C        0.333333        0.87037        0.115917        0        
C3        C        0.44444400000000006        0.87037        0.115917        0        
C3        C        0.555556        0.87037        0.115917        0        
C3        C        0.666667        0.87037        0.115917        0        
C3        C        0.777778        0.87037        0.115917        0        
C3        C        0.888889        0.87037        0.115917        0        
C4        C        0.055556        0.814814        0.115917        0        
C4        C        0.166667        0.814814        0.115917        0        
C4        C        0.277778        0.814814        0.115917        0        
C4        C        0.388889        0.814814        0.115917        0        
C4        C        0.5        0.814814        0.115917        0        
C4        C        0.611111        0.814814        0.115917        0        
C4        C        0.722222        0.814814        0.115917        0        
C4        C        0.833333        0.814814        0.115917        0        
C4        C        0.944444        0.814814        0.115917        0        
C1        C        0.0        0.907408        0.115917        0        
C1        C        0.11111100000000002        0.907408        0.115917        0        
C1        C        0.22222200000000003        0.907408        0.115917        0        
C1        C        0.333333        0.907408        0.115917        0        
C1        C        0.44444400000000006        0.907408        0.115917        0        
C1        C        0.555556        0.907408        0.115917        0        
C1        C        0.666667        0.907408        0.115917        0        
C1        C        0.777778        0.907408        0.115917        0        
C1        C        0.888889        0.907408        0.115917        0        
C2        C        0.055556        0.962963        0.115917        0        
C2        C        0.166667        0.962963        0.115917        0        
C2        C        0.277778        0.962963        0.115917        0        
C2        C        0.388889        0.962963        0.115917        0        
C2        C        0.5        0.962963        0.115917        0        
C2        C        0.611111        0.962963        0.115917        0        
C2        C        0.722222        0.962963        0.115917        0        
C2        C        0.833333        0.962963        0.115917        0        
C2        C        0.944444        0.962963        0.115917        0        
C3        C        0.0        0.9814809999999999        0.115917        0        
C3        C        0.11111100000000002        0.9814809999999999        0.115917        0        
C3        C        0.22222200000000003        0.9814809999999999        0.115917        0        
C3        C        0.333333        0.9814809999999999        0.115917        0        
C3        C        0.44444400000000006        0.9814809999999999        0.115917        0        
C3        C        0.555556        0.9814809999999999        0.115917        0        
C3        C        0.666667        0.9814809999999999        0.115917        0        
C3        C        0.777778        0.9814809999999999        0.115917        0        
C3        C        0.888889        0.9814809999999999        0.115917        0        
C4        C        0.055556        0.925925        0.115917        0        
C4        C        0.166667        0.925925        0.115917        0        
C4        C        0.277778        0.925925        0.115917        0        
C4        C        0.388889        0.925925        0.115917        0        
C4        C        0.5        0.925925        0.115917        0        
C4        C        0.611111        0.925925        0.115917        0        
C4        C        0.722222        0.925925        0.115917        0        
C4        C        0.833333        0.925925        0.115917        0        
C4        C        0.944444        0.925925        0.115917        0        
C1        C        0.0        0.018519        0.231834        0        
C2        C        0.055556        0.074075        0.231834        0        
C3        C        0.0        0.092592        0.231834        0        
C4        C        0.055556        0.037037        0.231834        0        
C1        C        0.0        0.12963        0.231834        0        
C2        C        0.055556        0.185185        0.231834        0        
C3        C        0.0        0.203703        0.231834        0        
C4        C        0.055556        0.148148        0.231834        0        
C1        C        0.0        0.24074099999999998        0.231834        0        
C2        C        0.055556        0.296297        0.231834        0        
C3        C        0.0        0.314815        0.231834        0        
C4        C        0.055556        0.259259        0.231834        0        
C1        C        0.0        0.351852        0.231834        0        
C2        C        0.055556        0.407408        0.231834        0        
C3        C        0.0        0.42592500000000005        0.231834        0        
C4        C        0.055556        0.37037        0.231834        0        
C1        C        0.0        0.46296300000000007        0.231834        0        
C2        C        0.055556        0.518519        0.231834        0        
C3        C        0.0        0.537037        0.231834        0        
C4        C        0.055556        0.481481        0.231834        0        
C1        C        0.0        0.574075        0.231834        0        
C2        C        0.055556        0.62963        0.231834        0        
C3        C        0.0        0.648148        0.231834        0        
C4        C        0.055556        0.592592        0.231834        0        
C_FG        C        0.11111100000000002        0.018519        0.231834        0.2        
C2        C        0.166667        0.074075        0.231834        0        
C3        C        0.11111100000000002        0.092592        0.231834        0        
C4        C        0.166667        0.037037        0.231834        0        
C_FG        C        0.11111100000000002        0.12963        0.231834        0.2        
C2        C        0.166667        0.185185        0.231834        0        
C3        C        0.11111100000000002        0.203703        0.231834        0        
C4        C        0.166667        0.148148        0.231834        0        
C_FG        C        0.11111100000000002        0.24074099999999998        0.231834        0.2        
C2        C        0.166667        0.296297        0.231834        0        
C3        C        0.11111100000000002        0.314815        0.231834        0        
C4        C        0.166667        0.259259        0.231834        0        
C_FG        C        0.11111100000000002        0.351852        0.231834        0.2        
C2        C        0.166667        0.407408        0.231834        0        
C3        C        0.11111100000000002        0.42592500000000005        0.231834        0        
C4        C        0.166667        0.37037        0.231834        0        
C_FG        C        0.11111100000000002        0.46296300000000007        0.231834        0.2        
C2        C        0.166667        0.518519        0.231834        0        
C3        C        0.11111100000000002        0.537037        0.231834        0        
C4        C        0.166667        0.481481        0.231834        0        
C_FG        C        0.11111100000000002        0.574075        0.231834        0.2        
C2        C        0.166667        0.62963        0.231834        0        
C3        C        0.11111100000000002        0.648148        0.231834        0        
C4        C        0.166667        0.592592        0.231834        0        
C1        C        0.22222200000000003        0.018519        0.231834        0        
C2        C        0.277778        0.074075        0.231834        0        
C3        C        0.22222200000000003        0.092592        0.231834        0        
C4        C        0.277778        0.037037        0.231834        0        
C1        C        0.22222200000000003        0.12963        0.231834        0        
C2        C        0.277778        0.185185        0.231834        0        
C3        C        0.22222200000000003        0.203703        0.231834        0        
C4        C        0.277778        0.148148        0.231834        0        
C1        C        0.22222200000000003        0.24074099999999998        0.231834        0        
C2        C        0.277778        0.296297        0.231834        0        
C3        C        0.22222200000000003        0.314815        0.231834        0        
C4        C        0.277778        0.259259        0.231834        0        
C1        C        0.22222200000000003        0.351852        0.231834        0        
C2        C        0.277778        0.407408        0.231834        0        
C3        C        0.22222200000000003        0.42592500000000005        0.231834        0        
C4        C        0.277778        0.37037        0.231834        0        
C1        C        0.22222200000000003        0.46296300000000007        0.231834        0        
C2        C        0.277778        0.518519        0.231834        0        
C3        C        0.22222200000000003        0.537037        0.231834        0        
C4        C        0.277778        0.481481        0.231834        0        
C1        C        0.22222200000000003        0.574075        0.231834        0        
C2        C        0.277778        0.62963        0.231834        0        
C3        C        0.22222200000000003        0.648148        0.231834        0        
C4        C        0.277778        0.592592        0.231834        0        
C_FG        C        0.333333        0.018519        0.231834        0.2        
C2        C        0.388889        0.074075        0.231834        0        
C3        C        0.333333        0.092592        0.231834        0        
C4        C        0.388889        0.037037        0.231834        0        
C_FG        C        0.333333        0.12963        0.231834        0.2        
C2        C        0.388889        0.185185        0.231834        0        
C3        C        0.333333        0.203703        0.231834        0        
C4        C        0.388889        0.148148        0.231834        0        
C_FG        C        0.333333        0.24074099999999998        0.231834        0.2        
C2        C        0.388889        0.296297        0.231834        0        
C3        C        0.333333        0.314815        0.231834        0        
C4        C        0.388889        0.259259        0.231834        0        
C_FG        C        0.333333        0.351852        0.231834        0.2        
C2        C        0.388889        0.407408        0.231834        0        
C3        C        0.333333        0.42592500000000005        0.231834        0        
C4        C        0.388889        0.37037        0.231834        0        
C_FG        C        0.333333        0.46296300000000007        0.231834        0.2        
C2        C        0.388889        0.518519        0.231834        0        
C3        C        0.333333        0.537037        0.231834        0        
C4        C        0.388889        0.481481        0.231834        0        
C_FG        C        0.333333        0.574075        0.231834        0.2        
C2        C        0.388889        0.62963        0.231834        0        
C3        C        0.333333        0.648148        0.231834        0        
C4        C        0.388889        0.592592        0.231834        0        
C1        C        0.44444400000000006        0.018519        0.231834        0        
C2        C        0.5        0.074075        0.231834        0        
C3        C        0.44444400000000006        0.092592        0.231834        0        
C4        C        0.5        0.037037        0.231834        0        
C1        C        0.44444400000000006        0.12963        0.231834        0        
C2        C        0.5        0.185185        0.231834        0        
C3        C        0.44444400000000006        0.203703        0.231834        0        
C4        C        0.5        0.148148        0.231834        0        
C1        C        0.44444400000000006        0.24074099999999998        0.231834        0        
C2        C        0.5        0.296297        0.231834        0        
C3        C        0.44444400000000006        0.314815        0.231834        0        
C4        C        0.5        0.259259        0.231834        0        
C1        C        0.44444400000000006        0.351852        0.231834        0        
C2        C        0.5        0.407408        0.231834        0        
C3        C        0.44444400000000006        0.42592500000000005        0.231834        0        
C4        C        0.5        0.37037        0.231834        0        
C1        C        0.44444400000000006        0.46296300000000007        0.231834        0        
C2        C        0.5        0.518519        0.231834        0        
C3        C        0.44444400000000006        0.537037        0.231834        0        
C4        C        0.5        0.481481        0.231834        0        
C1        C        0.44444400000000006        0.574075        0.231834        0        
C2        C        0.5        0.62963        0.231834        0        
C3        C        0.44444400000000006        0.648148        0.231834        0        
C4        C        0.5        0.592592        0.231834        0        
C1        C        0.555556        0.018519        0.231834        0        
C2        C        0.611111        0.074075        0.231834        0        
C3        C        0.555556        0.092592        0.231834        0        
C4        C        0.611111        0.037037        0.231834        0        
C1        C        0.555556        0.12963        0.231834        0        
C2        C        0.611111        0.185185        0.231834        0        
C3        C        0.555556        0.203703        0.231834        0        
C4        C        0.611111        0.148148        0.231834        0        
C1        C        0.555556        0.24074099999999998        0.231834        0        
C2        C        0.611111        0.296297        0.231834        0        
C3        C        0.555556        0.314815        0.231834        0        
C4        C        0.611111        0.259259        0.231834        0        
C1        C        0.555556        0.351852        0.231834        0        
C2        C        0.611111        0.407408        0.231834        0        
C3        C        0.555556        0.42592500000000005        0.231834        0        
C4        C        0.611111        0.37037        0.231834        0        
C1        C        0.555556        0.46296300000000007        0.231834        0        
C2        C        0.611111        0.518519        0.231834        0        
C3        C        0.555556        0.537037        0.231834        0        
C4        C        0.611111        0.481481        0.231834        0        
C1        C        0.555556        0.574075        0.231834        0        
C2        C        0.611111        0.62963        0.231834        0        
C3        C        0.555556        0.648148        0.231834        0        
C4        C        0.611111        0.592592        0.231834        0        
C_FG        C        0.666667        0.018519        0.231834        0.2        
C2        C        0.722222        0.074075        0.231834        0        
C3        C        0.666667        0.092592        0.231834        0        
C4        C        0.722222        0.037037        0.231834        0        
C_FG        C        0.666667        0.12963        0.231834        0.2        
C2        C        0.722222        0.185185        0.231834        0        
C3        C        0.666667        0.203703        0.231834        0        
C4        C        0.722222        0.148148        0.231834        0        
C_FG        C        0.666667        0.24074099999999998        0.231834        0.2        
C2        C        0.722222        0.296297        0.231834        0        
C3        C        0.666667        0.314815        0.231834        0        
C4        C        0.722222        0.259259        0.231834        0        
C_FG        C        0.666667        0.351852        0.231834        0.2        
C2        C        0.722222        0.407408        0.231834        0        
C3        C        0.666667        0.42592500000000005        0.231834        0        
C4        C        0.722222        0.37037        0.231834        0        
C_FG        C        0.666667        0.46296300000000007        0.231834        0.2        
C2        C        0.722222        0.518519        0.231834        0        
C3        C        0.666667        0.537037        0.231834        0        
C4        C        0.722222        0.481481        0.231834        0        
C_FG        C        0.666667        0.574075        0.231834        0.2        
C2        C        0.722222        0.62963        0.231834        0        
C3        C        0.666667        0.648148        0.231834        0        
C4        C        0.722222        0.592592        0.231834        0        
C1        C        0.777778        0.018519        0.231834        0        
C2        C        0.833333        0.074075        0.231834        0        
C3        C        0.777778        0.092592        0.231834        0        
C4        C        0.833333        0.037037        0.231834        0        
C1        C        0.777778        0.12963        0.231834        0        
C2        C        0.833333        0.185185        0.231834        0        
C3        C        0.777778        0.203703        0.231834        0        
C4        C        0.833333        0.148148        0.231834        0        
C1        C        0.777778        0.24074099999999998        0.231834        0        
C2        C        0.833333        0.296297        0.231834        0        
C3        C        0.777778        0.314815        0.231834        0        
C4        C        0.833333        0.259259        0.231834        0        
C1        C        0.777778        0.351852        0.231834        0        
C2        C        0.833333        0.407408        0.231834        0        
C3        C        0.777778        0.42592500000000005        0.231834        0        
C4        C        0.833333        0.37037        0.231834        0        
C1        C        0.777778        0.46296300000000007        0.231834        0        
C2        C        0.833333        0.518519        0.231834        0        
C3        C        0.777778        0.537037        0.231834        0        
C4        C        0.833333        0.481481        0.231834        0        
C1        C        0.777778        0.574075        0.231834        0        
C2        C        0.833333        0.62963        0.231834        0        
C3        C        0.777778        0.648148        0.231834        0        
C4        C        0.833333        0.592592        0.231834        0        
C_FG        C        0.888889        0.018519        0.231834        0.2        
C2        C        0.944444        0.074075        0.231834        0        
C3        C        0.888889        0.092592        0.231834        0        
C4        C        0.944444        0.037037        0.231834        0        
C_FG        C        0.888889        0.12963        0.231834        0.2        
C2        C        0.944444        0.185185        0.231834        0        
C3        C        0.888889        0.203703        0.231834        0        
C4        C        0.944444        0.148148        0.231834        0        
C_FG        C        0.888889        0.24074099999999998        0.231834        0.2        
C2        C        0.944444        0.296297        0.231834        0        
C3        C        0.888889        0.314815        0.231834        0        
C4        C        0.944444        0.259259        0.231834        0        
C_FG        C        0.888889        0.351852        0.231834        0.2        
C2        C        0.944444        0.407408        0.231834        0        
C3        C        0.888889        0.42592500000000005        0.231834        0        
C4        C        0.944444        0.37037        0.231834        0        
C_FG        C        0.888889        0.46296300000000007        0.231834        0.2        
C2        C        0.944444        0.518519        0.231834        0        
C3        C        0.888889        0.537037        0.231834        0        
C4        C        0.944444        0.481481        0.231834        0        
C_FG        C        0.888889        0.574075        0.231834        0.2        
C2        C        0.944444        0.62963        0.231834        0        
C3        C        0.888889        0.648148        0.231834        0        
C4        C        0.944444        0.592592        0.231834        0        
C1        C        0.0        0.685186        0.231834        0        
C_FG        C        0.11111100000000002        0.685186        0.231834        0.2        
C1        C        0.22222200000000003        0.685186        0.231834        0        
C_FG        C        0.333333        0.685186        0.231834        0.2        
C1        C        0.44444400000000006        0.685186        0.231834        0        
C1        C        0.555556        0.685186        0.231834        0        
C_FG        C        0.666667        0.685186        0.231834        0.2        
C1        C        0.777778        0.685186        0.231834        0        
C_FG        C        0.888889        0.685186        0.231834        0.2        
C2        C        0.055556        0.740741        0.231834        0        
C2        C        0.166667        0.740741        0.231834        0        
C2        C        0.277778        0.740741        0.231834        0        
C2        C        0.388889        0.740741        0.231834        0        
C2        C        0.5        0.740741        0.231834        0        
C2        C        0.611111        0.740741        0.231834        0        
C2        C        0.722222        0.740741        0.231834        0        
C2        C        0.833333        0.740741        0.231834        0        
C2        C        0.944444        0.740741        0.231834        0        
C3        C        0.0        0.759259        0.231834        0        
C3        C        0.11111100000000002        0.759259        0.231834        0        
C3        C        0.22222200000000003        0.759259        0.231834        0        
C3        C        0.333333        0.759259        0.231834        0        
C3        C        0.44444400000000006        0.759259        0.231834        0        
C3        C        0.555556        0.759259        0.231834        0        
C3        C        0.666667        0.759259        0.231834        0        
C3        C        0.777778        0.759259        0.231834        0        
C3        C        0.888889        0.759259        0.231834        0        
C4        C        0.055556        0.703703        0.231834        0        
C4        C        0.166667        0.703703        0.231834        0        
C4        C        0.277778        0.703703        0.231834        0        
C4        C        0.388889        0.703703        0.231834        0        
C4        C        0.5        0.703703        0.231834        0        
C4        C        0.611111        0.703703        0.231834        0        
C4        C        0.722222        0.703703        0.231834        0        
C4        C        0.833333        0.703703        0.231834        0        
C4        C        0.944444        0.703703        0.231834        0        
C1        C        0.0        0.796297        0.231834        0        
C_FG        C        0.11111100000000002        0.796297        0.231834        0.2        
C1        C        0.22222200000000003        0.796297        0.231834        0        
C_FG        C        0.333333        0.796297        0.231834        0.2        
C1        C        0.44444400000000006        0.796297        0.231834        0        
C1        C        0.555556        0.796297        0.231834        0        
C_FG        C        0.666667        0.796297        0.231834        0.2        
C1        C        0.777778        0.796297        0.231834        0        
C_FG        C        0.888889        0.796297        0.231834        0.2        
C2        C        0.055556        0.851852        0.231834        0        
C2        C        0.166667        0.851852        0.231834        0        
C2        C        0.277778        0.851852        0.231834        0        
C2        C        0.388889        0.851852        0.231834        0        
C2        C        0.5        0.851852        0.231834        0        
C2        C        0.611111        0.851852        0.231834        0        
C2        C        0.722222        0.851852        0.231834        0        
C2        C        0.833333        0.851852        0.231834        0        
C2        C        0.944444        0.851852        0.231834        0        
C3        C        0.0        0.87037        0.231834        0        
C3        C        0.11111100000000002        0.87037        0.231834        0        
C3        C        0.22222200000000003        0.87037        0.231834        0        
C3        C        0.333333        0.87037        0.231834        0        
C3        C        0.44444400000000006        0.87037        0.231834        0        
C3        C        0.555556        0.87037        0.231834        0        
C3        C        0.666667        0.87037        0.231834        0        
C3        C        0.777778        0.87037        0.231834        0        
C3        C        0.888889        0.87037        0.231834        0        
C4        C        0.055556        0.814814        0.231834        0        
C4        C        0.166667        0.814814        0.231834        0        
C4        C        0.277778        0.814814        0.231834        0        
C4        C        0.388889        0.814814        0.231834        0        
C4        C        0.5        0.814814        0.231834        0        
C4        C        0.611111        0.814814        0.231834        0        
C4        C        0.722222        0.814814        0.231834        0        
C4        C        0.833333        0.814814        0.231834        0        
C4        C        0.944444        0.814814        0.231834        0        
C1        C        0.0        0.907408        0.231834        0        
C_FG        C        0.11111100000000002        0.907408        0.231834        0.2        
C1        C        0.22222200000000003        0.907408        0.231834        0        
C_FG        C        0.333333        0.907408        0.231834        0.2        
C1        C        0.44444400000000006        0.907408        0.231834        0        
C1        C        0.555556        0.907408        0.231834        0        
C_FG        C        0.666667        0.907408        0.231834        0.2        
C1        C        0.777778        0.907408        0.231834        0        
C_FG        C        0.888889        0.907408        0.231834        0.2        
C2        C        0.055556        0.962963        0.231834        0        
C2        C        0.166667        0.962963        0.231834        0        
C2        C        0.277778        0.962963        0.231834        0        
C2        C        0.388889        0.962963        0.231834        0        
C2        C        0.5        0.962963        0.231834        0        
C2        C        0.611111        0.962963        0.231834        0        
C2        C        0.722222        0.962963        0.231834        0        
C2        C        0.833333        0.962963        0.231834        0        
C2        C        0.944444        0.962963        0.231834        0        
C3        C        0.0        0.9814809999999999        0.231834        0        
C3        C        0.11111100000000002        0.9814809999999999        0.231834        0        
C3        C        0.22222200000000003        0.9814809999999999        0.231834        0        
C3        C        0.333333        0.9814809999999999        0.231834        0        
C3        C        0.44444400000000006        0.9814809999999999        0.231834        0        
C3        C        0.555556        0.9814809999999999        0.231834        0        
C3        C        0.666667        0.9814809999999999        0.231834        0        
C3        C        0.777778        0.9814809999999999        0.231834        0        
C3        C        0.888889        0.9814809999999999        0.231834        0        
C4        C        0.055556        0.925925        0.231834        0        
C4        C        0.166667        0.925925        0.231834        0        
C4        C        0.277778        0.925925        0.231834        0        
C4        C        0.388889        0.925925        0.231834        0        
C4        C        0.5        0.925925        0.231834        0        
C4        C        0.611111        0.925925        0.231834        0        
C4        C        0.722222        0.925925        0.231834        0        
C4        C        0.833333        0.925925        0.231834        0        
C4        C        0.944444        0.925925        0.231834        0        
C1        C        0.0        0.018519        0.768166        0        
C2        C        0.055556        0.074075        0.768166        0        
C3        C        0.0        0.092592        0.768166        0        
C4        C        0.055556        0.037037        0.768166        0        
C1        C        0.0        0.12963        0.768166        0        
C2        C        0.055556        0.185185        0.768166        0        
C3        C        0.0        0.203703        0.768166        0        
C4        C        0.055556        0.148148        0.768166        0        
C1        C        0.0        0.24074099999999998        0.768166        0        
C2        C        0.055556        0.296297        0.768166        0        
C3        C        0.0        0.314815        0.768166        0        
C4        C        0.055556        0.259259        0.768166        0        
C1        C        0.0        0.351852        0.768166        0        
C2        C        0.055556        0.407408        0.768166        0        
C3        C        0.0        0.42592500000000005        0.768166        0        
C4        C        0.055556        0.37037        0.768166        0        
C1        C        0.0        0.46296300000000007        0.768166        0        
C2        C        0.055556        0.518519        0.768166        0        
C3        C        0.0        0.537037        0.768166        0        
C4        C        0.055556        0.481481        0.768166        0        
C1        C        0.0        0.574075        0.768166        0        
C2        C        0.055556        0.62963        0.768166        0        
C3        C        0.0        0.648148        0.768166        0        
C4        C        0.055556        0.592592        0.768166        0        
C_FG        C        0.11111100000000002        0.018519        0.768166        0.2        
C2        C        0.166667        0.074075        0.768166        0        
C3        C        0.11111100000000002        0.092592        0.768166        0        
C4        C        0.166667        0.037037        0.768166        0        
C_FG        C        0.11111100000000002        0.12963        0.768166        0.2        
C2        C        0.166667        0.185185        0.768166        0        
C3        C        0.11111100000000002        0.203703        0.768166        0        
C4        C        0.166667        0.148148        0.768166        0        
C_FG        C        0.11111100000000002        0.24074099999999998        0.768166        0.2        
C2        C        0.166667        0.296297        0.768166        0        
C3        C        0.11111100000000002        0.314815        0.768166        0        
C4        C        0.166667        0.259259        0.768166        0        
C_FG        C        0.11111100000000002        0.351852        0.768166        0.2        
C2        C        0.166667        0.407408        0.768166        0        
C3        C        0.11111100000000002        0.42592500000000005        0.768166        0        
C4        C        0.166667        0.37037        0.768166        0        
C_FG        C        0.11111100000000002        0.46296300000000007        0.768166        0.2        
C2        C        0.166667        0.518519        0.768166        0        
C3        C        0.11111100000000002        0.537037        0.768166        0        
C4        C        0.166667        0.481481        0.768166        0        
C_FG        C        0.11111100000000002        0.574075        0.768166        0.2        
C2        C        0.166667        0.62963        0.768166        0        
C3        C        0.11111100000000002        0.648148        0.768166        0        
C4        C        0.166667        0.592592        0.768166        0        
C1        C        0.22222200000000003        0.018519        0.768166        0        
C2        C        0.277778        0.074075        0.768166        0        
C3        C        0.22222200000000003        0.092592        0.768166        0        
C4        C        0.277778        0.037037        0.768166        0        
C1        C        0.22222200000000003        0.12963        0.768166        0        
C2        C        0.277778        0.185185        0.768166        0        
C3        C        0.22222200000000003        0.203703        0.768166        0        
C4        C        0.277778        0.148148        0.768166        0        
C1        C        0.22222200000000003        0.24074099999999998        0.768166        0        
C2        C        0.277778        0.296297        0.768166        0        
C3        C        0.22222200000000003        0.314815        0.768166        0        
C4        C        0.277778        0.259259        0.768166        0        
C1        C        0.22222200000000003        0.351852        0.768166        0        
C2        C        0.277778        0.407408        0.768166        0        
C3        C        0.22222200000000003        0.42592500000000005        0.768166        0        
C4        C        0.277778        0.37037        0.768166        0        
C1        C        0.22222200000000003        0.46296300000000007        0.768166        0        
C2        C        0.277778        0.518519        0.768166        0        
C3        C        0.22222200000000003        0.537037        0.768166        0        
C4        C        0.277778        0.481481        0.768166        0        
C1        C        0.22222200000000003        0.574075        0.768166        0        
C2        C        0.277778        0.62963        0.768166        0        
C3        C        0.22222200000000003        0.648148        0.768166        0        
C4        C        0.277778        0.592592        0.768166        0        
C_FG        C        0.333333        0.018519        0.768166        0.2        
C2        C        0.388889        0.074075        0.768166        0        
C3        C        0.333333        0.092592        0.768166        0        
C4        C        0.388889        0.037037        0.768166        0        
C_FG        C        0.333333        0.12963        0.768166        0.2        
C2        C        0.388889        0.185185        0.768166        0        
C3        C        0.333333        0.203703        0.768166        0        
C4        C        0.388889        0.148148        0.768166        0        
C_FG        C        0.333333        0.24074099999999998        0.768166        0.2        
C2        C        0.388889        0.296297        0.768166        0        
C3        C        0.333333        0.314815        0.768166        0        
C4        C        0.388889        0.259259        0.768166        0        
C_FG        C        0.333333        0.351852        0.768166        0.2        
C2        C        0.388889        0.407408        0.768166        0        
C3        C        0.333333        0.42592500000000005        0.768166        0        
C4        C        0.388889        0.37037        0.768166        0        
C_FG        C        0.333333        0.46296300000000007        0.768166        0.2        
C2        C        0.388889        0.518519        0.768166        0        
C3        C        0.333333        0.537037        0.768166        0        
C4        C        0.388889        0.481481        0.768166        0        
C_FG        C        0.333333        0.574075        0.768166        0.2        
C2        C        0.388889        0.62963        0.768166        0        
C3        C        0.333333        0.648148        0.768166        0        
C4        C        0.388889        0.592592        0.768166        0        
C1        C        0.44444400000000006        0.018519        0.768166        0        
C2        C        0.5        0.074075        0.768166        0        
C3        C        0.44444400000000006        0.092592        0.768166        0        
C4        C        0.5        0.037037        0.768166        0        
C1        C        0.44444400000000006        0.12963        0.768166        0        
C2        C        0.5        0.185185        0.768166        0        
C3        C        0.44444400000000006        0.203703        0.768166        0        
C4        C        0.5        0.148148        0.768166        0        
C1        C        0.44444400000000006        0.24074099999999998        0.768166        0        
C2        C        0.5        0.296297        0.768166        0        
C3        C        0.44444400000000006        0.314815        0.768166        0        
C4        C        0.5        0.259259        0.768166        0        
C1        C        0.44444400000000006        0.351852        0.768166        0        
C2        C        0.5        0.407408        0.768166        0        
C3        C        0.44444400000000006        0.42592500000000005        0.768166        0        
C4        C        0.5        0.37037        0.768166        0        
C1        C        0.44444400000000006        0.46296300000000007        0.768166        0        
C2        C        0.5        0.518519        0.768166        0        
C3        C        0.44444400000000006        0.537037        0.768166        0        
C4        C        0.5        0.481481        0.768166        0        
C1        C        0.44444400000000006        0.574075        0.768166        0        
C2        C        0.5        0.62963        0.768166        0        
C3        C        0.44444400000000006        0.648148        0.768166        0        
C4        C        0.5        0.592592        0.768166        0        
C1        C        0.555556        0.018519        0.768166        0        
C2        C        0.611111        0.074075        0.768166        0        
C3        C        0.555556        0.092592        0.768166        0        
C4        C        0.611111        0.037037        0.768166        0        
C1        C        0.555556        0.12963        0.768166        0        
C2        C        0.611111        0.185185        0.768166        0        
C3        C        0.555556        0.203703        0.768166        0        
C4        C        0.611111        0.148148        0.768166        0        
C1        C        0.555556        0.24074099999999998        0.768166        0        
C2        C        0.611111        0.296297        0.768166        0        
C3        C        0.555556        0.314815        0.768166        0        
C4        C        0.611111        0.259259        0.768166        0        
C1        C        0.555556        0.351852        0.768166        0        
C2        C        0.611111        0.407408        0.768166        0        
C3        C        0.555556        0.42592500000000005        0.768166        0        
C4        C        0.611111        0.37037        0.768166        0        
C1        C        0.555556        0.46296300000000007        0.768166        0        
C2        C        0.611111        0.518519        0.768166        0        
C3        C        0.555556        0.537037        0.768166        0        
C4        C        0.611111        0.481481        0.768166        0        
C1        C        0.555556        0.574075        0.768166        0        
C2        C        0.611111        0.62963        0.768166        0        
C3        C        0.555556        0.648148        0.768166        0        
C4        C        0.611111        0.592592        0.768166        0        
C_FG        C        0.666667        0.018519        0.768166        0.2        
C2        C        0.722222        0.074075        0.768166        0        
C3        C        0.666667        0.092592        0.768166        0        
C4        C        0.722222        0.037037        0.768166        0        
C_FG        C        0.666667        0.12963        0.768166        0.2        
C2        C        0.722222        0.185185        0.768166        0        
C3        C        0.666667        0.203703        0.768166        0        
C4        C        0.722222        0.148148        0.768166        0        
C_FG        C        0.666667        0.24074099999999998        0.768166        0.2        
C2        C        0.722222        0.296297        0.768166        0        
C3        C        0.666667        0.314815        0.768166        0        
C4        C        0.722222        0.259259        0.768166        0        
C_FG        C        0.666667        0.351852        0.768166        0.2        
C2        C        0.722222        0.407408        0.768166        0        
C3        C        0.666667        0.42592500000000005        0.768166        0        
C4        C        0.722222        0.37037        0.768166        0        
C_FG        C        0.666667        0.46296300000000007        0.768166        0.2        
C2        C        0.722222        0.518519        0.768166        0        
C3        C        0.666667        0.537037        0.768166        0        
C4        C        0.722222        0.481481        0.768166        0        
C_FG        C        0.666667        0.574075        0.768166        0.2        
C2        C        0.722222        0.62963        0.768166        0        
C3        C        0.666667        0.648148        0.768166        0        
C4        C        0.722222        0.592592        0.768166        0        
C1        C        0.777778        0.018519        0.768166        0        
C2        C        0.833333        0.074075        0.768166        0        
C3        C        0.777778        0.092592        0.768166        0        
C4        C        0.833333        0.037037        0.768166        0        
C1        C        0.777778        0.12963        0.768166        0        
C2        C        0.833333        0.185185        0.768166        0        
C3        C        0.777778        0.203703        0.768166        0        
C4        C        0.833333        0.148148        0.768166        0        
C1        C        0.777778        0.24074099999999998        0.768166        0        
C2        C        0.833333        0.296297        0.768166        0        
C3        C        0.777778        0.314815        0.768166        0        
C4        C        0.833333        0.259259        0.768166        0        
C1        C        0.777778        0.351852        0.768166        0        
C2        C        0.833333        0.407408        0.768166        0        
C3        C        0.777778        0.42592500000000005        0.768166        0        
C4        C        0.833333        0.37037        0.768166        0        
C1        C        0.777778        0.46296300000000007        0.768166        0        
C2        C        0.833333        0.518519        0.768166        0        
C3        C        0.777778        0.537037        0.768166        0        
C4        C        0.833333        0.481481        0.768166        0        
C1        C        0.777778        0.574075        0.768166        0        
C2        C        0.833333        0.62963        0.768166        0        
C3        C        0.777778        0.648148        0.768166        0        
C4        C        0.833333        0.592592        0.768166        0        
C_FG        C        0.888889        0.018519        0.768166        0.2        
C2        C        0.944444        0.074075        0.768166        0        
C3        C        0.888889        0.092592        0.768166        0        
C4        C        0.944444        0.037037        0.768166        0        
C_FG        C        0.888889        0.12963        0.768166        0.2        
C2        C        0.944444        0.185185        0.768166        0        
C3        C        0.888889        0.203703        0.768166        0        
C4        C        0.944444        0.148148        0.768166        0        
C_FG        C        0.888889        0.24074099999999998        0.768166        0.2        
C2        C        0.944444        0.296297        0.768166        0        
C3        C        0.888889        0.314815        0.768166        0        
C4        C        0.944444        0.259259        0.768166        0        
C_FG        C        0.888889        0.351852        0.768166        0.2        
C2        C        0.944444        0.407408        0.768166        0        
C3        C        0.888889        0.42592500000000005        0.768166        0        
C4        C        0.944444        0.37037        0.768166        0        
C_FG        C        0.888889        0.46296300000000007        0.768166        0.2        
C2        C        0.944444        0.518519        0.768166        0        
C3        C        0.888889        0.537037        0.768166        0        
C4        C        0.944444        0.481481        0.768166        0        
C_FG        C        0.888889        0.574075        0.768166        0.2        
C2        C        0.944444        0.62963        0.768166        0        
C3        C        0.888889        0.648148        0.768166        0        
C4        C        0.944444        0.592592        0.768166        0        
C1        C        0.0        0.685186        0.768166        0        
C_FG        C        0.11111100000000002        0.685186        0.768166        0.2        
C1        C        0.22222200000000003        0.685186        0.768166        0        
C_FG        C        0.333333        0.685186        0.768166        0.2        
C1        C        0.44444400000000006        0.685186        0.768166        0        
C1        C        0.555556        0.685186        0.768166        0        
C_FG        C        0.666667        0.685186        0.768166        0.2        
C1        C        0.777778        0.685186        0.768166        0        
C_FG        C        0.888889        0.685186        0.768166        0.2        
C2        C        0.055556        0.740741        0.768166        0        
C2        C        0.166667        0.740741        0.768166        0        
C2        C        0.277778        0.740741        0.768166        0        
C2        C        0.388889        0.740741        0.768166        0        
C2        C        0.5        0.740741        0.768166        0        
C2        C        0.611111        0.740741        0.768166        0        
C2        C        0.722222        0.740741        0.768166        0        
C2        C        0.833333        0.740741        0.768166        0        
C2        C        0.944444        0.740741        0.768166        0        
C3        C        0.0        0.759259        0.768166        0        
C3        C        0.11111100000000002        0.759259        0.768166        0        
C3        C        0.22222200000000003        0.759259        0.768166        0        
C3        C        0.333333        0.759259        0.768166        0        
C3        C        0.44444400000000006        0.759259        0.768166        0        
C3        C        0.555556        0.759259        0.768166        0        
C3        C        0.666667        0.759259        0.768166        0        
C3        C        0.777778        0.759259        0.768166        0        
C3        C        0.888889        0.759259        0.768166        0        
C4        C        0.055556        0.703703        0.768166        0        
C4        C        0.166667        0.703703        0.768166        0        
C4        C        0.277778        0.703703        0.768166        0        
C4        C        0.388889        0.703703        0.768166        0        
C4        C        0.5        0.703703        0.768166        0        
C4        C        0.611111        0.703703        0.768166        0        
C4        C        0.722222        0.703703        0.768166        0        
C4        C        0.833333        0.703703        0.768166        0        
C4        C        0.944444        0.703703        0.768166        0        
C1        C        0.0        0.796297        0.768166        0        
C_FG        C        0.11111100000000002        0.796297        0.768166        0.2        
C1        C        0.22222200000000003        0.796297        0.768166        0        
C_FG        C        0.333333        0.796297        0.768166        0.2        
C1        C        0.44444400000000006        0.796297        0.768166        0        
C1        C        0.555556        0.796297        0.768166        0        
C_FG        C        0.666667        0.796297        0.768166        0.2        
C1        C        0.777778        0.796297        0.768166        0        
C_FG        C        0.888889        0.796297        0.768166        0.2        
C2        C        0.055556        0.851852        0.768166        0        
C2        C        0.166667        0.851852        0.768166        0        
C2        C        0.277778        0.851852        0.768166        0        
C2        C        0.388889        0.851852        0.768166        0        
C2        C        0.5        0.851852        0.768166        0        
C2        C        0.611111        0.851852        0.768166        0        
C2        C        0.722222        0.851852        0.768166        0        
C2        C        0.833333        0.851852        0.768166        0        
C2        C        0.944444        0.851852        0.768166        0        
C3        C        0.0        0.87037        0.768166        0        
C3        C        0.11111100000000002        0.87037        0.768166        0        
C3        C        0.22222200000000003        0.87037        0.768166        0        
C3        C        0.333333        0.87037        0.768166        0        
C3        C        0.44444400000000006        0.87037        0.768166        0        
C3        C        0.555556        0.87037        0.768166        0        
C3        C        0.666667        0.87037        0.768166        0        
C3        C        0.777778        0.87037        0.768166        0        
C3        C        0.888889        0.87037        0.768166        0        
C4        C        0.055556        0.814814        0.768166        0        
C4        C        0.166667        0.814814        0.768166        0        
C4        C        0.277778        0.814814        0.768166        0        
C4        C        0.388889        0.814814        0.768166        0        
C4        C        0.5        0.814814        0.768166        0        
C4        C        0.611111        0.814814        0.768166        0        
C4        C        0.722222        0.814814        0.768166        0        
C4        C        0.833333        0.814814        0.768166        0        
C4        C        0.944444        0.814814        0.768166        0        
C1        C        0.0        0.907408        0.768166        0        
C_FG        C        0.11111100000000002        0.907408        0.768166        0.2        
C1        C        0.22222200000000003        0.907408        0.768166        0        
C_FG        C        0.333333        0.907408        0.768166        0.2        
C1        C        0.44444400000000006        0.907408        0.768166        0        
C1        C        0.555556        0.907408        0.768166        0        
C_FG        C        0.666667        0.907408        0.768166        0.2        
C1        C        0.777778        0.907408        0.768166        0        
C_FG        C        0.888889        0.907408        0.768166        0.2        
C2        C        0.055556        0.962963        0.768166        0        
C2        C        0.166667        0.962963        0.768166        0        
C2        C        0.277778        0.962963        0.768166        0        
C2        C        0.388889        0.962963        0.768166        0        
C2        C        0.5        0.962963        0.768166        0        
C2        C        0.611111        0.962963        0.768166        0        
C2        C        0.722222        0.962963        0.768166        0        
C2        C        0.833333        0.962963        0.768166        0        
C2        C        0.944444        0.962963        0.768166        0        
C3        C        0.0        0.9814809999999999        0.768166        0        
C3        C        0.11111100000000002        0.9814809999999999        0.768166        0        
C3        C        0.22222200000000003        0.9814809999999999        0.768166        0        
C3        C        0.333333        0.9814809999999999        0.768166        0        
C3        C        0.44444400000000006        0.9814809999999999        0.768166        0        
C3        C        0.555556        0.9814809999999999        0.768166        0        
C3        C        0.666667        0.9814809999999999        0.768166        0        
C3        C        0.777778        0.9814809999999999        0.768166        0        
C3        C        0.888889        0.9814809999999999        0.768166        0        
C4        C        0.055556        0.925925        0.768166        0        
C4        C        0.166667        0.925925        0.768166        0        
C4        C        0.277778        0.925925        0.768166        0        
C4        C        0.388889        0.925925        0.768166        0        
C4        C        0.5        0.925925        0.768166        0        
C4        C        0.611111        0.925925        0.768166        0        
C4        C        0.722222        0.925925        0.768166        0        
C4        C        0.833333        0.925925        0.768166        0        
C4        C        0.944444        0.925925        0.768166        0        
C1        C        0.0        0.018519        0.884083        0        
C2        C        0.055556        0.074075        0.884083        0        
C3        C        0.0        0.092592        0.884083        0        
C4        C        0.055556        0.037037        0.884083        0        
C1        C        0.0        0.12963        0.884083        0        
C2        C        0.055556        0.185185        0.884083        0        
C3        C        0.0        0.203703        0.884083        0        
C4        C        0.055556        0.148148        0.884083        0        
C1        C        0.0        0.24074099999999998        0.884083        0        
C2        C        0.055556        0.296297        0.884083        0        
C3        C        0.0        0.314815        0.884083        0        
C4        C        0.055556        0.259259        0.884083        0        
C1        C        0.0        0.351852        0.884083        0        
C2        C        0.055556        0.407408        0.884083        0        
C3        C        0.0        0.42592500000000005        0.884083        0        
C4        C        0.055556        0.37037        0.884083        0        
C1        C        0.0        0.46296300000000007        0.884083        0        
C2        C        0.055556        0.518519        0.884083        0        
C3        C        0.0        0.537037        0.884083        0        
C4        C        0.055556        0.481481        0.884083        0        
C1        C        0.0        0.574075        0.884083        0        
C2        C        0.055556        0.62963        0.884083        0        
C3        C        0.0        0.648148        0.884083        0        
C4        C        0.055556        0.592592        0.884083        0        
C1        C        0.11111100000000002        0.018519        0.884083        0        
C2        C        0.166667        0.074075        0.884083        0        
C3        C        0.11111100000000002        0.092592        0.884083        0        
C4        C        0.166667        0.037037        0.884083        0        
C1        C        0.11111100000000002        0.12963        0.884083        0        
C2        C        0.166667        0.185185        0.884083        0        
C3        C        0.11111100000000002        0.203703        0.884083        0        
C4        C        0.166667        0.148148        0.884083        0        
C1        C        0.11111100000000002        0.24074099999999998        0.884083        0        
C2        C        0.166667        0.296297        0.884083        0        
C3        C        0.11111100000000002        0.314815        0.884083        0        
C4        C        0.166667        0.259259        0.884083        0        
C1        C        0.11111100000000002        0.351852        0.884083        0        
C2        C        0.166667        0.407408        0.884083        0        
C3        C        0.11111100000000002        0.42592500000000005        0.884083        0        
C4        C        0.166667        0.37037        0.884083        0        
C1        C        0.11111100000000002        0.46296300000000007        0.884083        0        
C2        C        0.166667        0.518519        0.884083        0        
C3        C        0.11111100000000002        0.537037        0.884083        0        
C4        C        0.166667        0.481481        0.884083        0        
C1        C        0.11111100000000002        0.574075        0.884083        0        
C2        C        0.166667        0.62963        0.884083        0        
C3        C        0.11111100000000002        0.648148        0.884083        0        
C4        C        0.166667        0.592592        0.884083        0        
C1        C        0.22222200000000003        0.018519        0.884083        0        
C2        C        0.277778        0.074075        0.884083        0        
C3        C        0.22222200000000003        0.092592        0.884083        0        
C4        C        0.277778        0.037037        0.884083        0        
C1        C        0.22222200000000003        0.12963        0.884083        0        
C2        C        0.277778        0.185185        0.884083        0        
C3        C        0.22222200000000003        0.203703        0.884083        0        
C4        C        0.277778        0.148148        0.884083        0        
C1        C        0.22222200000000003        0.24074099999999998        0.884083        0        
C2        C        0.277778        0.296297        0.884083        0        
C3        C        0.22222200000000003        0.314815        0.884083        0        
C4        C        0.277778        0.259259        0.884083        0        
C1        C        0.22222200000000003        0.351852        0.884083        0        
C2        C        0.277778        0.407408        0.884083        0        
C3        C        0.22222200000000003        0.42592500000000005        0.884083        0        
C4        C        0.277778        0.37037        0.884083        0        
C1        C        0.22222200000000003        0.46296300000000007        0.884083        0        
C2        C        0.277778        0.518519        0.884083        0        
C3        C        0.22222200000000003        0.537037        0.884083        0        
C4        C        0.277778        0.481481        0.884083        0        
C1        C        0.22222200000000003        0.574075        0.884083        0        
C2        C        0.277778        0.62963        0.884083        0        
C3        C        0.22222200000000003        0.648148        0.884083        0        
C4        C        0.277778        0.592592        0.884083        0        
C1        C        0.333333        0.018519        0.884083        0        
C2        C        0.388889        0.074075        0.884083        0        
C3        C        0.333333        0.092592        0.884083        0        
C4        C        0.388889        0.037037        0.884083        0        
C1        C        0.333333        0.12963        0.884083        0        
C2        C        0.388889        0.185185        0.884083        0        
C3        C        0.333333        0.203703        0.884083        0        
C4        C        0.388889        0.148148        0.884083        0        
C1        C        0.333333        0.24074099999999998        0.884083        0        
C2        C        0.388889        0.296297        0.884083        0        
C3        C        0.333333        0.314815        0.884083        0        
C4        C        0.388889        0.259259        0.884083        0        
C1        C        0.333333        0.351852        0.884083        0        
C2        C        0.388889        0.407408        0.884083        0        
C3        C        0.333333        0.42592500000000005        0.884083        0        
C4        C        0.388889        0.37037        0.884083        0        
C1        C        0.333333        0.46296300000000007        0.884083        0        
C2        C        0.388889        0.518519        0.884083        0        
C3        C        0.333333        0.537037        0.884083        0        
C4        C        0.388889        0.481481        0.884083        0        
C1        C        0.333333        0.574075        0.884083        0        
C2        C        0.388889        0.62963        0.884083        0        
C3        C        0.333333        0.648148        0.884083        0        
C4        C        0.388889        0.592592        0.884083        0        
C1        C        0.44444400000000006        0.018519        0.884083        0        
C2        C        0.5        0.074075        0.884083        0        
C3        C        0.44444400000000006        0.092592        0.884083        0        
C4        C        0.5        0.037037        0.884083        0        
C1        C        0.44444400000000006        0.12963        0.884083        0        
C2        C        0.5        0.185185        0.884083        0        
C3        C        0.44444400000000006        0.203703        0.884083        0        
C4        C        0.5        0.148148        0.884083        0        
C1        C        0.44444400000000006        0.24074099999999998        0.884083        0        
C2        C        0.5        0.296297        0.884083        0        
C3        C        0.44444400000000006        0.314815        0.884083        0        
C4        C        0.5        0.259259        0.884083        0        
C1        C        0.44444400000000006        0.351852        0.884083        0        
C2        C        0.5        0.407408        0.884083        0        
C3        C        0.44444400000000006        0.42592500000000005        0.884083        0        
C4        C        0.5        0.37037        0.884083        0        
C1        C        0.44444400000000006        0.46296300000000007        0.884083        0        
C2        C        0.5        0.518519        0.884083        0        
C3        C        0.44444400000000006        0.537037        0.884083        0        
C4        C        0.5        0.481481        0.884083        0        
C1        C        0.44444400000000006        0.574075        0.884083        0        
C2        C        0.5        0.62963        0.884083        0        
C3        C        0.44444400000000006        0.648148        0.884083        0        
C4        C        0.5        0.592592        0.884083        0        
C1        C        0.555556        0.018519        0.884083        0        
C2        C        0.611111        0.074075        0.884083        0        
C3        C        0.555556        0.092592        0.884083        0        
C4        C        0.611111        0.037037        0.884083        0        
C1        C        0.555556        0.12963        0.884083        0        
C2        C        0.611111        0.185185        0.884083        0        
C3        C        0.555556        0.203703        0.884083        0        
C4        C        0.611111        0.148148        0.884083        0        
C1        C        0.555556        0.24074099999999998        0.884083        0        
C2        C        0.611111        0.296297        0.884083        0        
C3        C        0.555556        0.314815        0.884083        0        
C4        C        0.611111        0.259259        0.884083        0        
C1        C        0.555556        0.351852        0.884083        0        
C2        C        0.611111        0.407408        0.884083        0        
C3        C        0.555556        0.42592500000000005        0.884083        0        
C4        C        0.611111        0.37037        0.884083        0        
C1        C        0.555556        0.46296300000000007        0.884083        0        
C2        C        0.611111        0.518519        0.884083        0        
C3        C        0.555556        0.537037        0.884083        0        
C4        C        0.611111        0.481481        0.884083        0        
C1        C        0.555556        0.574075        0.884083        0        
C2        C        0.611111        0.62963        0.884083        0        
C3        C        0.555556        0.648148        0.884083        0        
C4        C        0.611111        0.592592        0.884083        0        
C1        C        0.666667        0.018519        0.884083        0        
C2        C        0.722222        0.074075        0.884083        0        
C3        C        0.666667        0.092592        0.884083        0        
C4        C        0.722222        0.037037        0.884083        0        
C1        C        0.666667        0.12963        0.884083        0        
C2        C        0.722222        0.185185        0.884083        0        
C3        C        0.666667        0.203703        0.884083        0        
C4        C        0.722222        0.148148        0.884083        0        
C1        C        0.666667        0.24074099999999998        0.884083        0        
C2        C        0.722222        0.296297        0.884083        0        
C3        C        0.666667        0.314815        0.884083        0        
C4        C        0.722222        0.259259        0.884083        0        
C1        C        0.666667        0.351852        0.884083        0        
C2        C        0.722222        0.407408        0.884083        0        
C3        C        0.666667        0.42592500000000005        0.884083        0        
C4        C        0.722222        0.37037        0.884083        0        
C1        C        0.666667        0.46296300000000007        0.884083        0        
C2        C        0.722222        0.518519        0.884083        0        
C3        C        0.666667        0.537037        0.884083        0        
C4        C        0.722222        0.481481        0.884083        0        
C1        C        0.666667        0.574075        0.884083        0        
C2        C        0.722222        0.62963        0.884083        0        
C3        C        0.666667        0.648148        0.884083        0        
C4        C        0.722222        0.592592        0.884083        0        
C1        C        0.777778        0.018519        0.884083        0        
C2        C        0.833333        0.074075        0.884083        0        
C3        C        0.777778        0.092592        0.884083        0        
C4        C        0.833333        0.037037        0.884083        0        
C1        C        0.777778        0.12963        0.884083        0        
C2        C        0.833333        0.185185        0.884083        0        
C3        C        0.777778        0.203703        0.884083        0        
C4        C        0.833333        0.148148        0.884083        0        
C1        C        0.777778        0.24074099999999998        0.884083        0        
C2        C        0.833333        0.296297        0.884083        0        
C3        C        0.777778        0.314815        0.884083        0        
C4        C        0.833333        0.259259        0.884083        0        
C1        C        0.777778        0.351852        0.884083        0        
C2        C        0.833333        0.407408        0.884083        0        
C3        C        0.777778        0.42592500000000005        0.884083        0        
C4        C        0.833333        0.37037        0.884083        0        
C1        C        0.777778        0.46296300000000007        0.884083        0        
C2        C        0.833333        0.518519        0.884083        0        
C3        C        0.777778        0.537037        0.884083        0        
C4        C        0.833333        0.481481        0.884083        0        
C1        C        0.777778        0.574075        0.884083        0        
C2        C        0.833333        0.62963        0.884083        0        
C3        C        0.777778        0.648148        0.884083        0        
C4        C        0.833333        0.592592        0.884083        0        
C1        C        0.888889        0.018519        0.884083        0        
C2        C        0.944444        0.074075        0.884083        0        
C3        C        0.888889        0.092592        0.884083        0        
C4        C        0.944444        0.037037        0.884083        0        
C1        C        0.888889        0.12963        0.884083        0        
C2        C        0.944444        0.185185        0.884083        0        
C3        C        0.888889        0.203703        0.884083        0        
C4        C        0.944444        0.148148        0.884083        0        
C1        C        0.888889        0.24074099999999998        0.884083        0        
C2        C        0.944444        0.296297        0.884083        0        
C3        C        0.888889        0.314815        0.884083        0        
C4        C        0.944444        0.259259        0.884083        0        
C1        C        0.888889        0.351852        0.884083        0        
C2        C        0.944444        0.407408        0.884083        0        
C3        C        0.888889        0.42592500000000005        0.884083        0        
C4        C        0.944444        0.37037        0.884083        0        
C1        C        0.888889        0.46296300000000007        0.884083        0        
C2        C        0.944444        0.518519        0.884083        0        
C3        C        0.888889        0.537037        0.884083        0        
C4        C        0.944444        0.481481        0.884083        0        
C1        C        0.888889        0.574075        0.884083        0        
C2        C        0.944444        0.62963        0.884083        0        
C3        C        0.888889        0.648148        0.884083        0        
C4        C        0.944444        0.592592        0.884083        0        
C1        C        0.0        0.685186        0.884083        0        
C1        C        0.11111100000000002        0.685186        0.884083        0        
C1        C        0.22222200000000003        0.685186        0.884083        0        
C1        C        0.333333        0.685186        0.884083        0        
C1        C        0.44444400000000006        0.685186        0.884083        0        
C1        C        0.555556        0.685186        0.884083        0        
C1        C        0.666667        0.685186        0.884083        0        
C1        C        0.777778        0.685186        0.884083        0        
C1        C        0.888889        0.685186        0.884083        0        
C2        C        0.055556        0.740741        0.884083        0        
C2        C        0.166667        0.740741        0.884083        0        
C2        C        0.277778        0.740741        0.884083        0        
C2        C        0.388889        0.740741        0.884083        0        
C2        C        0.5        0.740741        0.884083        0        
C2        C        0.611111        0.740741        0.884083        0        
C2        C        0.722222        0.740741        0.884083        0        
C2        C        0.833333        0.740741        0.884083        0        
C2        C        0.944444        0.740741        0.884083        0        
C3        C        0.0        0.759259        0.884083        0        
C3        C        0.11111100000000002        0.759259        0.884083        0        
C3        C        0.22222200000000003        0.759259        0.884083        0        
C3        C        0.333333        0.759259        0.884083        0        
C3        C        0.44444400000000006        0.759259        0.884083        0        
C3        C        0.555556        0.759259        0.884083        0        
C3        C        0.666667        0.759259        0.884083        0        
C3        C        0.777778        0.759259        0.884083        0        
C3        C        0.888889        0.759259        0.884083        0        
C4        C        0.055556        0.703703        0.884083        0        
C4        C        0.166667        0.703703        0.884083        0        
C4        C        0.277778        0.703703        0.884083        0        
C4        C        0.388889        0.703703        0.884083        0        
C4        C        0.5        0.703703        0.884083        0        
C4        C        0.611111        0.703703        0.884083        0        
C4        C        0.722222        0.703703        0.884083        0        
C4        C        0.833333        0.703703        0.884083        0        
C4        C        0.944444        0.703703        0.884083        0        
C1        C        0.0        0.796297        0.884083        0        
C1        C        0.11111100000000002        0.796297        0.884083        0        
C1        C        0.22222200000000003        0.796297        0.884083        0        
C1        C        0.333333        0.796297        0.884083        0        
C1        C        0.44444400000000006        0.796297        0.884083        0        
C1        C        0.555556        0.796297        0.884083        0        
C1        C        0.666667        0.796297        0.884083        0        
C1        C        0.777778        0.796297        0.884083        0        
C1        C        0.888889        0.796297        0.884083        0        
C2        C        0.055556        0.851852        0.884083        0        
C2        C        0.166667        0.851852        0.884083        0        
C2        C        0.277778        0.851852        0.884083        0        
C2        C        0.388889        0.851852        0.884083        0        
C2        C        0.5        0.851852        0.884083        0        
C2        C        0.611111        0.851852        0.884083        0        
C2        C        0.722222        0.851852        0.884083        0        
C2        C        0.833333        0.851852        0.884083        0        
C2        C        0.944444        0.851852        0.884083        0        
C3        C        0.0        0.87037        0.884083        0        
C3        C        0.11111100000000002        0.87037        0.884083        0        
C3        C        0.22222200000000003        0.87037        0.884083        0        
C3        C        0.333333        0.87037        0.884083        0        
C3        C        0.44444400000000006        0.87037        0.884083        0        
C3        C        0.555556        0.87037        0.884083        0        
C3        C        0.666667        0.87037        0.884083        0        
C3        C        0.777778        0.87037        0.884083        0        
C3        C        0.888889        0.87037        0.884083        0        
C4        C        0.055556        0.814814        0.884083        0        
C4        C        0.166667        0.814814        0.884083        0        
C4        C        0.277778        0.814814        0.884083        0        
C4        C        0.388889        0.814814        0.884083        0        
C4        C        0.5        0.814814        0.884083        0        
C4        C        0.611111        0.814814        0.884083        0        
C4        C        0.722222        0.814814        0.884083        0        
C4        C        0.833333        0.814814        0.884083        0        
C4        C        0.944444        0.814814        0.884083        0        
C1        C        0.0        0.907408        0.884083        0        
C1        C        0.11111100000000002        0.907408        0.884083        0        
C1        C        0.22222200000000003        0.907408        0.884083        0        
C1        C        0.333333        0.907408        0.884083        0        
C1        C        0.44444400000000006        0.907408        0.884083        0        
C1        C        0.555556        0.907408        0.884083        0        
C1        C        0.666667        0.907408        0.884083        0        
C1        C        0.777778        0.907408        0.884083        0        
C1        C        0.888889        0.907408        0.884083        0        
C2        C        0.055556        0.962963        0.884083        0        
C2        C        0.166667        0.962963        0.884083        0        
C2        C        0.277778        0.962963        0.884083        0        
C2        C        0.388889        0.962963        0.884083        0        
C2        C        0.5        0.962963        0.884083        0        
C2        C        0.611111        0.962963        0.884083        0        
C2        C        0.722222        0.962963        0.884083        0        
C2        C        0.833333        0.962963        0.884083        0        
C2        C        0.944444        0.962963        0.884083        0        
C3        C        0.0        0.9814809999999999        0.884083        0        
C3        C        0.11111100000000002        0.9814809999999999        0.884083        0        
C3        C        0.22222200000000003        0.9814809999999999        0.884083        0        
C3        C        0.333333        0.9814809999999999        0.884083        0        
C3        C        0.44444400000000006        0.9814809999999999        0.884083        0        
C3        C        0.555556        0.9814809999999999        0.884083        0        
C3        C        0.666667        0.9814809999999999        0.884083        0        
C3        C        0.777778        0.9814809999999999        0.884083        0        
C3        C        0.888889        0.9814809999999999        0.884083        0        
C4        C        0.055556        0.925925        0.884083        0        
C4        C        0.166667        0.925925        0.884083        0        
C4        C        0.277778        0.925925        0.884083        0        
C4        C        0.388889        0.925925        0.884083        0        
C4        C        0.5        0.925925        0.884083        0        
C4        C        0.611111        0.925925        0.884083        0        
C4        C        0.722222        0.925925        0.884083        0        
C4        C        0.833333        0.925925        0.884083        0        
C4        C        0.944444        0.925925        0.884083        0        
C1        C        0.0        0.018519        1.0        0        
C2        C        0.055556        0.074075        1.0        0        
C3        C        0.0        0.092592        1.0        0        
C4        C        0.055556        0.037037        1.0        0        
C1        C        0.0        0.12963        1.0        0        
C2        C        0.055556        0.185185        1.0        0        
C3        C        0.0        0.203703        1.0        0        
C4        C        0.055556        0.148148        1.0        0        
C1        C        0.0        0.24074099999999998        1.0        0        
C2        C        0.055556        0.296297        1.0        0        
C3        C        0.0        0.314815        1.0        0        
C4        C        0.055556        0.259259        1.0        0        
C1        C        0.0        0.351852        1.0        0        
C2        C        0.055556        0.407408        1.0        0        
C3        C        0.0        0.42592500000000005        1.0        0        
C4        C        0.055556        0.37037        1.0        0        
C1        C        0.0        0.46296300000000007        1.0        0        
C2        C        0.055556        0.518519        1.0        0        
C3        C        0.0        0.537037        1.0        0        
C4        C        0.055556        0.481481        1.0        0        
C1        C        0.0        0.574075        1.0        0        
C2        C        0.055556        0.62963        1.0        0        
C3        C        0.0        0.648148        1.0        0        
C4        C        0.055556        0.592592        1.0        0        
C1        C        0.11111100000000002        0.018519        1.0        0        
C2        C        0.166667        0.074075        1.0        0        
C3        C        0.11111100000000002        0.092592        1.0        0        
C4        C        0.166667        0.037037        1.0        0        
C1        C        0.11111100000000002        0.12963        1.0        0        
C2        C        0.166667        0.185185        1.0        0        
C3        C        0.11111100000000002        0.203703        1.0        0        
C4        C        0.166667        0.148148        1.0        0        
C1        C        0.11111100000000002        0.24074099999999998        1.0        0        
C2        C        0.166667        0.296297        1.0        0        
C3        C        0.11111100000000002        0.314815        1.0        0        
C4        C        0.166667        0.259259        1.0        0        
C1        C        0.11111100000000002        0.351852        1.0        0        
C2        C        0.166667        0.407408        1.0        0        
C3        C        0.11111100000000002        0.42592500000000005        1.0        0        
C4        C        0.166667        0.37037        1.0        0        
C1        C        0.11111100000000002        0.46296300000000007        1.0        0        
C2        C        0.166667        0.518519        1.0        0        
C3        C        0.11111100000000002        0.537037        1.0        0        
C4        C        0.166667        0.481481        1.0        0        
C1        C        0.11111100000000002        0.574075        1.0        0        
C2        C        0.166667        0.62963        1.0        0        
C3        C        0.11111100000000002        0.648148        1.0        0        
C4        C        0.166667        0.592592        1.0        0        
C1        C        0.22222200000000003        0.018519        1.0        0        
C2        C        0.277778        0.074075        1.0        0        
C3        C        0.22222200000000003        0.092592        1.0        0        
C4        C        0.277778        0.037037        1.0        0        
C1        C        0.22222200000000003        0.12963        1.0        0        
C2        C        0.277778        0.185185        1.0        0        
C3        C        0.22222200000000003        0.203703        1.0        0        
C4        C        0.277778        0.148148        1.0        0        
C1        C        0.22222200000000003        0.24074099999999998        1.0        0        
C2        C        0.277778        0.296297        1.0        0        
C3        C        0.22222200000000003        0.314815        1.0        0        
C4        C        0.277778        0.259259        1.0        0        
C1        C        0.22222200000000003        0.351852        1.0        0        
C2        C        0.277778        0.407408        1.0        0        
C3        C        0.22222200000000003        0.42592500000000005        1.0        0        
C4        C        0.277778        0.37037        1.0        0        
C1        C        0.22222200000000003        0.46296300000000007        1.0        0        
C2        C        0.277778        0.518519        1.0        0        
C3        C        0.22222200000000003        0.537037        1.0        0        
C4        C        0.277778        0.481481        1.0        0        
C1        C        0.22222200000000003        0.574075        1.0        0        
C2        C        0.277778        0.62963        1.0        0        
C3        C        0.22222200000000003        0.648148        1.0        0        
C4        C        0.277778        0.592592        1.0        0        
C1        C        0.333333        0.018519        1.0        0        
C2        C        0.388889        0.074075        1.0        0        
C3        C        0.333333        0.092592        1.0        0        
C4        C        0.388889        0.037037        1.0        0        
C1        C        0.333333        0.12963        1.0        0        
C2        C        0.388889        0.185185        1.0        0        
C3        C        0.333333        0.203703        1.0        0        
C4        C        0.388889        0.148148        1.0        0        
C1        C        0.333333        0.24074099999999998        1.0        0        
C2        C        0.388889        0.296297        1.0        0        
C3        C        0.333333        0.314815        1.0        0        
C4        C        0.388889        0.259259        1.0        0        
C1        C        0.333333        0.351852        1.0        0        
C2        C        0.388889        0.407408        1.0        0        
C3        C        0.333333        0.42592500000000005        1.0        0        
C4        C        0.388889        0.37037        1.0        0        
C1        C        0.333333        0.46296300000000007        1.0        0        
C2        C        0.388889        0.518519        1.0        0        
C3        C        0.333333        0.537037        1.0        0        
C4        C        0.388889        0.481481        1.0        0        
C1        C        0.333333        0.574075        1.0        0        
C2        C        0.388889        0.62963        1.0        0        
C3        C        0.333333        0.648148        1.0        0        
C4        C        0.388889        0.592592        1.0        0        
C1        C        0.44444400000000006        0.018519        1.0        0        
C2        C        0.5        0.074075        1.0        0        
C3        C        0.44444400000000006        0.092592        1.0        0        
C4        C        0.5        0.037037        1.0        0        
C1        C        0.44444400000000006        0.12963        1.0        0        
C2        C        0.5        0.185185        1.0        0        
C3        C        0.44444400000000006        0.203703        1.0        0        
C4        C        0.5        0.148148        1.0        0        
C1        C        0.44444400000000006        0.24074099999999998        1.0        0        
C2        C        0.5        0.296297        1.0        0        
C3        C        0.44444400000000006        0.314815        1.0        0        
C4        C        0.5        0.259259        1.0        0        
C1        C        0.44444400000000006        0.351852        1.0        0        
C2        C        0.5        0.407408        1.0        0        
C3        C        0.44444400000000006        0.42592500000000005        1.0        0        
C4        C        0.5        0.37037        1.0        0        
C1        C        0.44444400000000006        0.46296300000000007        1.0        0        
C2        C        0.5        0.518519        1.0        0        
C3        C        0.44444400000000006        0.537037        1.0        0        
C4        C        0.5        0.481481        1.0        0        
C1        C        0.44444400000000006        0.574075        1.0        0        
C2        C        0.5        0.62963        1.0        0        
C3        C        0.44444400000000006        0.648148        1.0        0        
C4        C        0.5        0.592592        1.0        0        
C1        C        0.555556        0.018519        1.0        0        
C2        C        0.611111        0.074075        1.0        0        
C3        C        0.555556        0.092592        1.0        0        
C4        C        0.611111        0.037037        1.0        0        
C1        C        0.555556        0.12963        1.0        0        
C2        C        0.611111        0.185185        1.0        0        
C3        C        0.555556        0.203703        1.0        0        
C4        C        0.611111        0.148148        1.0        0        
C1        C        0.555556        0.24074099999999998        1.0        0        
C2        C        0.611111        0.296297        1.0        0        
C3        C        0.555556        0.314815        1.0        0        
C4        C        0.611111        0.259259        1.0        0        
C1        C        0.555556        0.351852        1.0        0        
C2        C        0.611111        0.407408        1.0        0        
C3        C        0.555556        0.42592500000000005        1.0        0        
C4        C        0.611111        0.37037        1.0        0        
C1        C        0.555556        0.46296300000000007        1.0        0        
C2        C        0.611111        0.518519        1.0        0        
C3        C        0.555556        0.537037        1.0        0        
C4        C        0.611111        0.481481        1.0        0        
C1        C        0.555556        0.574075        1.0        0        
C2        C        0.611111        0.62963        1.0        0        
C3        C        0.555556        0.648148        1.0        0        
C4        C        0.611111        0.592592        1.0        0        
C1        C        0.666667        0.018519        1.0        0        
C2        C        0.722222        0.074075        1.0        0        
C3        C        0.666667        0.092592        1.0        0        
C4        C        0.722222        0.037037        1.0        0        
C1        C        0.666667        0.12963        1.0        0        
C2        C        0.722222        0.185185        1.0        0        
C3        C        0.666667        0.203703        1.0        0        
C4        C        0.722222        0.148148        1.0        0        
C1        C        0.666667        0.24074099999999998        1.0        0        
C2        C        0.722222        0.296297        1.0        0        
C3        C        0.666667        0.314815        1.0        0        
C4        C        0.722222        0.259259        1.0        0        
C1        C        0.666667        0.351852        1.0        0        
C2        C        0.722222        0.407408        1.0        0        
C3        C        0.666667        0.42592500000000005        1.0        0        
C4        C        0.722222        0.37037        1.0        0        
C1        C        0.666667        0.46296300000000007        1.0        0        
C2        C        0.722222        0.518519        1.0        0        
C3        C        0.666667        0.537037        1.0        0        
C4        C        0.722222        0.481481        1.0        0        
C1        C        0.666667        0.574075        1.0        0        
C2        C        0.722222        0.62963        1.0        0        
C3        C        0.666667        0.648148        1.0        0        
C4        C        0.722222        0.592592        1.0        0        
C1        C        0.777778        0.018519        1.0        0        
C2        C        0.833333        0.074075        1.0        0        
C3        C        0.777778        0.092592        1.0        0        
C4        C        0.833333        0.037037        1.0        0        
C1        C        0.777778        0.12963        1.0        0        
C2        C        0.833333        0.185185        1.0        0        
C3        C        0.777778        0.203703        1.0        0        
C4        C        0.833333        0.148148        1.0        0        
C1        C        0.777778        0.24074099999999998        1.0        0        
C2        C        0.833333        0.296297        1.0        0        
C3        C        0.777778        0.314815        1.0        0        
C4        C        0.833333        0.259259        1.0        0        
C1        C        0.777778        0.351852        1.0        0        
C2        C        0.833333        0.407408        1.0        0        
C3        C        0.777778        0.42592500000000005        1.0        0        
C4        C        0.833333        0.37037        1.0        0        
C1        C        0.777778        0.46296300000000007        1.0        0        
C2        C        0.833333        0.518519        1.0        0        
C3        C        0.777778        0.537037        1.0        0        
C4        C        0.833333        0.481481        1.0        0        
C1        C        0.777778        0.574075        1.0        0        
C2        C        0.833333        0.62963        1.0        0        
C3        C        0.777778        0.648148        1.0        0        
C4        C        0.833333        0.592592        1.0        0        
C1        C        0.888889        0.018519        1.0        0        
C2        C        0.944444        0.074075        1.0        0        
C3        C        0.888889        0.092592        1.0        0        
C4        C        0.944444        0.037037        1.0        0        
C1        C        0.888889        0.12963        1.0        0        
C2        C        0.944444        0.185185        1.0        0        
C3        C        0.888889        0.203703        1.0        0        
C4        C        0.944444        0.148148        1.0        0        
C1        C        0.888889        0.24074099999999998        1.0        0        
C2        C        0.944444        0.296297        1.0        0        
C3        C        0.888889        0.314815        1.0        0        
C4        C        0.944444        0.259259        1.0        0        
C1        C        0.888889        0.351852        1.0        0        
C2        C        0.944444        0.407408        1.0        0        
C3        C        0.888889        0.42592500000000005        1.0        0        
C4        C        0.944444        0.37037        1.0        0        
C1        C        0.888889        0.46296300000000007        1.0        0        
C2        C        0.944444        0.518519        1.0        0        
C3        C        0.888889        0.537037        1.0        0        
C4        C        0.944444        0.481481        1.0        0        
C1        C        0.888889        0.574075        1.0        0        
C2        C        0.944444        0.62963        1.0        0        
C3        C        0.888889        0.648148        1.0        0        
C4        C        0.944444        0.592592        1.0        0        
C1        C        0.0        0.685186        1.0        0        
C1        C        0.11111100000000002        0.685186        1.0        0        
C1        C        0.22222200000000003        0.685186        1.0        0        
C1        C        0.333333        0.685186        1.0        0        
C1        C        0.44444400000000006        0.685186        1.0        0        
C1        C        0.555556        0.685186        1.0        0        
C1        C        0.666667        0.685186        1.0        0        
C1        C        0.777778        0.685186        1.0        0        
C1        C        0.888889        0.685186        1.0        0        
C2        C        0.055556        0.740741        1.0        0        
C2        C        0.166667        0.740741        1.0        0        
C2        C        0.277778        0.740741        1.0        0        
C2        C        0.388889        0.740741        1.0        0        
C2        C        0.5        0.740741        1.0        0        
C2        C        0.611111        0.740741        1.0        0        
C2        C        0.722222        0.740741        1.0        0        
C2        C        0.833333        0.740741        1.0        0        
C2        C        0.944444        0.740741        1.0        0        
C3        C        0.0        0.759259        1.0        0        
C3        C        0.11111100000000002        0.759259        1.0        0        
C3        C        0.22222200000000003        0.759259        1.0        0        
C3        C        0.333333        0.759259        1.0        0        
C3        C        0.44444400000000006        0.759259        1.0        0        
C3        C        0.555556        0.759259        1.0        0        
C3        C        0.666667        0.759259        1.0        0        
C3        C        0.777778        0.759259        1.0        0        
C3        C        0.888889        0.759259        1.0        0        
C4        C        0.055556        0.703703        1.0        0        
C4        C        0.166667        0.703703        1.0        0        
C4        C        0.277778        0.703703        1.0        0        
C4        C        0.388889        0.703703        1.0        0        
C4        C        0.5        0.703703        1.0        0        
C4        C        0.611111        0.703703        1.0        0        
C4        C        0.722222        0.703703        1.0        0        
C4        C        0.833333        0.703703        1.0        0        
C4        C        0.944444        0.703703        1.0        0        
C1        C        0.0        0.796297        1.0        0        
C1        C        0.11111100000000002        0.796297        1.0        0        
C1        C        0.22222200000000003        0.796297        1.0        0        
C1        C        0.333333        0.796297        1.0        0        
C1        C        0.44444400000000006        0.796297        1.0        0        
C1        C        0.555556        0.796297        1.0        0        
C1        C        0.666667        0.796297        1.0        0        
C1        C        0.777778        0.796297        1.0        0        
C1        C        0.888889        0.796297        1.0        0        
C2        C        0.055556        0.851852        1.0        0        
C2        C        0.166667        0.851852        1.0        0        
C2        C        0.277778        0.851852        1.0        0        
C2        C        0.388889        0.851852        1.0        0        
C2        C        0.5        0.851852        1.0        0        
C2        C        0.611111        0.851852        1.0        0        
C2        C        0.722222        0.851852        1.0        0        
C2        C        0.833333        0.851852        1.0        0        
C2        C        0.944444        0.851852        1.0        0        
C3        C        0.0        0.87037        1.0        0        
C3        C        0.11111100000000002        0.87037        1.0        0        
C3        C        0.22222200000000003        0.87037        1.0        0        
C3        C        0.333333        0.87037        1.0        0        
C3        C        0.44444400000000006        0.87037        1.0        0        
C3        C        0.555556        0.87037        1.0        0        
C3        C        0.666667        0.87037        1.0        0        
C3        C        0.777778        0.87037        1.0        0        
C3        C        0.888889        0.87037        1.0        0        
C4        C        0.055556        0.814814        1.0        0        
C4        C        0.166667        0.814814        1.0        0        
C4        C        0.277778        0.814814        1.0        0        
C4        C        0.388889        0.814814        1.0        0        
C4        C        0.5        0.814814        1.0        0        
C4        C        0.611111        0.814814        1.0        0        
C4        C        0.722222        0.814814        1.0        0        
C4        C        0.833333        0.814814        1.0        0        
C4        C        0.944444        0.814814        1.0        0        
C1        C        0.0        0.907408        1.0        0        
C1        C        0.11111100000000002        0.907408        1.0        0        
C1        C        0.22222200000000003        0.907408        1.0        0        
C1        C        0.333333        0.907408        1.0        0        
C1        C        0.44444400000000006        0.907408        1.0        0        
C1        C        0.555556        0.907408        1.0        0        
C1        C        0.666667        0.907408        1.0        0        
C1        C        0.777778        0.907408        1.0        0        
C1        C        0.888889        0.907408        1.0        0        
C2        C        0.055556        0.962963        1.0        0        
C2        C        0.166667        0.962963        1.0        0        
C2        C        0.277778        0.962963        1.0        0        
C2        C        0.388889        0.962963        1.0        0        
C2        C        0.5        0.962963        1.0        0        
C2        C        0.611111        0.962963        1.0        0        
C2        C        0.722222        0.962963        1.0        0        
C2        C        0.833333        0.962963        1.0        0        
C2        C        0.944444        0.962963        1.0        0        
C3        C        0.0        0.9814809999999999        1.0        0        
C3        C        0.11111100000000002        0.9814809999999999        1.0        0        
C3        C        0.22222200000000003        0.9814809999999999        1.0        0        
C3        C        0.333333        0.9814809999999999        1.0        0        
C3        C        0.44444400000000006        0.9814809999999999        1.0        0        
C3        C        0.555556        0.9814809999999999        1.0        0        
C3        C        0.666667        0.9814809999999999        1.0        0        
C3        C        0.777778        0.9814809999999999        1.0        0        
C3        C        0.888889        0.9814809999999999        1.0        0        
C4        C        0.055556        0.925925        1.0        0        
C4        C        0.166667        0.925925        1.0        0        
C4        C        0.277778        0.925925        1.0        0        
C4        C        0.388889        0.925925        1.0        0        
C4        C        0.5        0.925925        1.0        0        
C4        C        0.611111        0.925925        1.0        0        
C4        C        0.722222        0.925925        1.0        0        
C4        C        0.833333        0.925925        1.0        0        
C4        C        0.944444        0.925925        1.0        0        
O_OH        O        0.11111100000000002        0.018519        0.28141868512110724        -0.64        
O_OH        O        0.11111100000000002        0.12963        0.28141868512110724        -0.64        
O_OH        O        0.11111100000000002        0.24074099999999998        0.28141868512110724        -0.64        
O_OH        O        0.11111100000000002        0.351852        0.28141868512110724        -0.64        
O_OH        O        0.11111100000000002        0.46296300000000007        0.28141868512110724        -0.64        
O_OH        O        0.11111100000000002        0.574075        0.28141868512110724        -0.64        
O_OH        O        0.333333        0.018519        0.28141868512110724        -0.64        
O_OH        O        0.333333        0.12963        0.28141868512110724        -0.64        
O_OH        O        0.333333        0.24074099999999998        0.28141868512110724        -0.64        
O_OH        O        0.333333        0.351852        0.28141868512110724        -0.64        
O_OH        O        0.333333        0.46296300000000007        0.28141868512110724        -0.64        
O_OH        O        0.333333        0.574075        0.28141868512110724        -0.64        
O_OH        O        0.666667        0.018519        0.28141868512110724        -0.64        
O_OH        O        0.666667        0.12963        0.28141868512110724        -0.64        
O_OH        O        0.666667        0.24074099999999998        0.28141868512110724        -0.64        
O_OH        O        0.666667        0.351852        0.28141868512110724        -0.64        
O_OH        O        0.666667        0.46296300000000007        0.28141868512110724        -0.64        
O_OH        O        0.666667        0.574075        0.28141868512110724        -0.64        
O_OH        O        0.888889        0.018519        0.28141868512110724        -0.64        
O_OH        O        0.888889        0.12963        0.28141868512110724        -0.64        
O_OH        O        0.888889        0.24074099999999998        0.28141868512110724        -0.64        
O_OH        O        0.888889        0.351852        0.28141868512110724        -0.64        
O_OH        O        0.888889        0.46296300000000007        0.28141868512110724        -0.64        
O_OH        O        0.888889        0.574075        0.28141868512110724        -0.64        
O_OH        O        0.11111100000000002        0.685186        0.28141868512110724        -0.64        
O_OH        O        0.333333        0.685186        0.28141868512110724        -0.64        
O_OH        O        0.666667        0.685186        0.28141868512110724        -0.64        
O_OH        O        0.888889        0.685186        0.28141868512110724        -0.64        
O_OH        O        0.11111100000000002        0.796297        0.28141868512110724        -0.64        
O_OH        O        0.333333        0.796297        0.28141868512110724        -0.64        
O_OH        O        0.666667        0.796297        0.28141868512110724        -0.64        
O_OH        O        0.888889        0.796297        0.28141868512110724        -0.64        
O_OH        O        0.11111100000000002        0.907408        0.28141868512110724        -0.64        
O_OH        O        0.333333        0.907408        0.28141868512110724        -0.64        
O_OH        O        0.666667        0.907408        0.28141868512110724        -0.64        
O_OH        O        0.888889        0.907408        0.28141868512110724        -0.64        
O_OH        O        0.11111100000000002        0.018519        0.7185813148788928        -0.64        
O_OH        O        0.11111100000000002        0.12963        0.7185813148788928        -0.64        
O_OH        O        0.11111100000000002        0.24074099999999998        0.7185813148788928        -0.64        
O_OH        O        0.11111100000000002        0.351852        0.7185813148788928        -0.64        
O_OH        O        0.11111100000000002        0.46296300000000007        0.7185813148788928        -0.64        
O_OH        O        0.11111100000000002        0.574075        0.7185813148788928        -0.64        
O_OH        O        0.333333        0.018519        0.7185813148788928        -0.64        
O_OH        O        0.333333        0.12963        0.7185813148788928        -0.64        
O_OH        O        0.333333        0.24074099999999998        0.7185813148788928        -0.64        
O_OH        O        0.333333        0.351852        0.7185813148788928        -0.64        
O_OH        O        0.333333        0.46296300000000007        0.7185813148788928        -0.64        
O_OH        O        0.333333        0.574075        0.7185813148788928        -0.64        
O_OH        O        0.666667        0.018519        0.7185813148788928        -0.64        
O_OH        O        0.666667        0.12963        0.7185813148788928        -0.64        
O_OH        O        0.666667        0.24074099999999998        0.7185813148788928        -0.64        
O_OH        O        0.666667        0.351852        0.7185813148788928        -0.64        
O_OH        O        0.666667        0.46296300000000007        0.7185813148788928        -0.64        
O_OH        O        0.666667        0.574075        0.7185813148788928        -0.64        
O_OH        O        0.888889        0.018519        0.7185813148788928        -0.64        
O_OH        O        0.888889        0.12963        0.7185813148788928        -0.64        
O_OH        O        0.888889        0.24074099999999998        0.7185813148788928        -0.64        
O_OH        O        0.888889        0.351852        0.7185813148788928        -0.64        
O_OH        O        0.888889        0.46296300000000007        0.7185813148788928        -0.64        
O_OH        O        0.888889        0.574075        0.7185813148788928        -0.64        
O_OH        O        0.11111100000000002        0.685186        0.7185813148788928        -0.64        
O_OH        O        0.333333        0.685186        0.7185813148788928        -0.64        
O_OH        O        0.666667        0.685186        0.7185813148788928        -0.64        
O_OH        O        0.888889        0.685186        0.7185813148788928        -0.64        
O_OH        O        0.11111100000000002        0.796297        0.7185813148788928        -0.64        
O_OH        O        0.333333        0.796297        0.7185813148788928        -0.64        
O_OH        O        0.666667        0.796297        0.7185813148788928        -0.64        
O_OH        O        0.888889        0.796297        0.7185813148788928        -0.64        
O_OH        O        0.11111100000000002        0.907408        0.7185813148788928        -0.64        
O_OH        O        0.333333        0.907408        0.7185813148788928        -0.64        
O_OH        O        0.666667        0.907408        0.7185813148788928        -0.64        
O_OH        O        0.888889        0.907408        0.7185813148788928        -0.64        
H_OH        H        0.07089112726155765        0.021780548727440733        0.29305186851211074        0.44        
H_OH        H        0.08243292693521889        0.14623757742863808        0.29305186851211074        0.44        
H_OH        H        0.07055269255807012        0.2419744388960425        0.29305186851211074        0.44        
H_OH        H        0.0712897495197574        0.3564647335445454        0.29305186851211074        0.44        
H_OH        H        0.15082872122141494        0.46786435389804293        0.29305186851211074        0.44        
H_OH        H        0.14884200038709178        0.5827544747522134        0.29305186851211074        0.44        
H_OH        H        0.3657137544707716        0.032676021835102605        0.29305186851211074        0.44        
H_OH        H        0.3725261404413136        0.13578037545867291        0.29305186851211074        0.44        
H_OH        H        0.2968617803341828        0.2510611333892553        0.29305186851211074        0.44        
H_OH        H        0.2950997676530217        0.3597647122170407        0.29305186851211074        0.44        
H_OH        H        0.37030322178486236        0.4726730203374043        0.29305186851211074        0.44        
H_OH        H        0.3106937484365097        0.5935468086625396        0.29305186851211074        0.44        
H_OH        H        0.6969776538935317        0.03412981688191175        0.29305186851211074        0.44        
H_OH        H        0.6418543975463267        0.14819774580021847        0.29305186851211074        0.44        
H_OH        H        0.6733332819784513        0.2638763705351795        0.29305186851211074        0.44        
H_OH        H        0.6260574986702742        0.35222040658524234        0.29305186851211074        0.44        
H_OH        H        0.7036021832919824        0.4727173844203007        0.29305186851211074        0.44        
H_OH        H        0.6294266089126387        0.5834344177311084        0.29305186851211074        0.44        
H_OH        H        0.8694674184945163        0.03911710327682271        0.29305186851211074        0.44        
H_OH        H        0.8733501984438778        0.15129904786366935        0.29305186851211074        0.44        
H_OH        H        0.8724592757146383        0.26218977711919317        0.29305186851211074        0.44        
H_OH        H        0.9168610918305012        0.3688563592935033        0.29305186851211074        0.44        
H_OH        H        0.9291749524802237        0.4659402014570422        0.29305186851211074        0.44        
H_OH        H        0.929413651382774        0.5756342872393707        0.29305186851211074        0.44        
H_OH        H        0.14194005114500946        0.7004545469878933        0.29305186851211074        0.44        
H_OH        H        0.3358323995820823        0.70859499812195        0.29305186851211074        0.44        
H_OH        H        0.6938344576512773        0.70261996563812        0.29305186851211074        0.44        
H_OH        H        0.855823650843291        0.6988051283507204        0.29305186851211074        0.44        
H_OH        H        0.07591384790265536        0.8079997352179162        0.29305186851211074        0.44        
H_OH        H        0.31216236886424126        0.8163121576990764        0.29305186851211074        0.44        
H_OH        H        0.703606188402785        0.8060463256830999        0.29305186851211074        0.44        
H_OH        H        0.852244867541418        0.8064108166861768        0.29305186851211074        0.44        
H_OH        H        0.08640512112112507        0.9260231411345139        0.29305186851211074        0.44        
H_OH        H        0.3728294882786041        0.9128730878518393        0.29305186851211074        0.44        
H_OH        H        0.6594399259314018        0.93048715173237        0.29305186851211074        0.44        
H_OH        H        0.848458184529142        0.9096361288143082        0.29305186851211074        0.44        
H_OH        H        0.11101178595518771        0.04197238077005154        0.7069481314878893        0.44        
H_OH        H        0.07400930668935611        0.13917133592159503        0.7069481314878893        0.44        
H_OH        H        0.1390421963727443        0.2577677613141524        0.7069481314878893        0.44        
H_OH        H        0.07550594142825716        0.36313576261558267        0.7069481314878893        0.44        
H_OH        H        0.08485702510309776        0.4808575838362939        0.7069481314878893        0.44        
H_OH        H        0.13517066216620732        0.5929702908482506        0.7069481314878893        0.44        
H_OH        H        0.3459284911846843        0.04081611278284186        0.7069481314878893        0.44        
H_OH        H        0.37392157381432684        0.13046807684321562        0.7069481314878893        0.44        
H_OH        H        0.3689116354435211        0.2520525212417534        0.7069481314878893        0.44        
H_OH        H        0.3518438169435561        0.37272787736011637        0.7069481314878893        0.44        
H_OH        H        0.33740333048661436        0.4862983729529547        0.7069481314878893        0.44        
H_OH        H        0.308556433738306        0.5926587856396083        0.7069481314878893        0.44        
H_OH        H        0.6766382387526074        0.04125464020745311        0.7069481314878893        0.44        
H_OH        H        0.6429367115353409        0.14866368108334518        0.7069481314878893        0.44        
H_OH        H        0.6986593942418371        0.25518945656284564        0.7069481314878893        0.44        
H_OH        H        0.6594605755801598        0.37493330483732396        0.7069481314878893        0.44        
H_OH        H        0.6681906651051169        0.48639994078120546        0.7069481314878893        0.44        
H_OH        H        0.6810964119324828        0.5959983704939571        0.7069481314878893        0.44        
H_OH        H        0.8964169183792976        0.04156606067581463        0.7069481314878893        0.44        
H_OH        H        0.8485141995717411        0.1321743925183749        0.7069481314878893        0.44        
H_OH        H        0.9239222651741067        0.25260658677071174        0.7069481314878893        0.44        
H_OH        H        0.8925116318935952        0.3752119685176781        0.7069481314878893        0.44        
H_OH        H        0.8946346767134038        0.4861805734976268        0.7069481314878893        0.44        
H_OH        H        0.8647651920073338        0.5929429980739243        0.7069481314878893        0.44        
H_OH        H        0.11387295230492236        0.7085851570282479        0.7069481314878893        0.44        
H_OH        H        0.36815011765912725        0.697261877124605        0.7069481314878893        0.44        
H_OH        H        0.6422070404918423        0.7039091235589219        0.7069481314878893        0.44        
H_OH        H        0.9253896068385411        0.6954714293873886        0.7069481314878893        0.44        
H_OH        H        0.08712833458880435        0.8152249037371951        0.7069481314878893        0.44        
H_OH        H        0.3734237537058288        0.8000514127288605        0.7069481314878893        0.44        
H_OH        H        0.687854863448207        0.8163060761801069        0.7069481314878893        0.44        
H_OH        H        0.8593464818361538        0.8123913718084442        0.7069481314878893        0.44        
H_OH        H        0.14942004428708142        0.9151974784410045        0.7069481314878893        0.44        
H_OH        H        0.37229963343107686        0.91402091956318        0.7069481314878893        0.44        
H_OH        H        0.6331491804431515        0.9206531639647227        0.7069481314878893        0.44        
H_OH        H        0.8505385576439125        0.9151292501002817        0.7069481314878893        0.44        
