data_graphite_ortho

_audit_creation_method RASPA-1.0
_audit_creation_date 2012-2-3
_audit_author_name 'David Dubbeldam'

_cell_length_a    39.36    
_cell_length_b    38.34    
_cell_length_c    65.3    
_cell_angle_alpha 90
_cell_angle_beta  90
_cell_angle_gamma 90
_cell_volume      98541.77      

_symmetry_cell_setting          triclinic
_symmetry_space_group_name_Hall 'P 1'
_symmetry_space_group_name_H-M  'P 1'
_symmetry_Int_Tables_number     1

_symmetry_equiv_pos_as_xyz 'x,y,z'

loop_
_atom_site_label
_atom_site_type_symbol
_atom_site_fract_x
_atom_site_fract_y
_atom_site_fract_z
_atom_site_charge
C1        C        0.0        0.018519        0.183767        0        
C2        C        0.03125        0.074075        0.183767        0        
C3        C        0.0        0.092592        0.183767        0        
C4        C        0.03125        0.037037        0.183767        0        
C1        C        0.0        0.12963        0.183767        0        
C2        C        0.03125        0.185185        0.183767        0        
C3        C        0.0        0.203703        0.183767        0        
C4        C        0.03125        0.148148        0.183767        0        
C1        C        0.0        0.24074099999999998        0.183767        0        
C2        C        0.03125        0.296297        0.183767        0        
C3        C        0.0        0.314815        0.183767        0        
C4        C        0.03125        0.259259        0.183767        0        
C1        C        0.0        0.351852        0.183767        0        
C2        C        0.03125        0.407408        0.183767        0        
C3        C        0.0        0.42592500000000005        0.183767        0        
C4        C        0.03125        0.37037        0.183767        0        
C1        C        0.0        0.46296300000000007        0.183767        0        
C2        C        0.03125        0.518519        0.183767        0        
C3        C        0.0        0.537037        0.183767        0        
C4        C        0.03125        0.481481        0.183767        0        
C1        C        0.0        0.574075        0.183767        0        
C2        C        0.03125        0.62963        0.183767        0        
C3        C        0.0        0.648148        0.183767        0        
C4        C        0.03125        0.592592        0.183767        0        
C1        C        0.0625        0.018519        0.183767        0        
C2        C        0.09375        0.074075        0.183767        0        
C3        C        0.0625        0.092592        0.183767        0        
C4        C        0.09375        0.037037        0.183767        0        
C1        C        0.0625        0.12963        0.183767        0        
C2        C        0.09375        0.185185        0.183767        0        
C3        C        0.0625        0.203703        0.183767        0        
C4        C        0.09375        0.148148        0.183767        0        
C1        C        0.0625        0.24074099999999998        0.183767        0        
C2        C        0.09375        0.296297        0.183767        0        
C3        C        0.0625        0.314815        0.183767        0        
C4        C        0.09375        0.259259        0.183767        0        
C1        C        0.0625        0.351852        0.183767        0        
C2        C        0.09375        0.407408        0.183767        0        
C3        C        0.0625        0.42592500000000005        0.183767        0        
C4        C        0.09375        0.37037        0.183767        0        
C1        C        0.0625        0.46296300000000007        0.183767        0        
C2        C        0.09375        0.518519        0.183767        0        
C3        C        0.0625        0.537037        0.183767        0        
C4        C        0.09375        0.481481        0.183767        0        
C1        C        0.0625        0.574075        0.183767        0        
C2        C        0.09375        0.62963        0.183767        0        
C3        C        0.0625        0.648148        0.183767        0        
C4        C        0.09375        0.592592        0.183767        0        
C1        C        0.125        0.018519        0.183767        0        
C2        C        0.15625        0.074075        0.183767        0        
C3        C        0.125        0.092592        0.183767        0        
C4        C        0.15625        0.037037        0.183767        0        
C1        C        0.125        0.12963        0.183767        0        
C2        C        0.15625        0.185185        0.183767        0        
C3        C        0.125        0.203703        0.183767        0        
C4        C        0.15625        0.148148        0.183767        0        
C1        C        0.125        0.24074099999999998        0.183767        0        
C2        C        0.15625        0.296297        0.183767        0        
C3        C        0.125        0.314815        0.183767        0        
C4        C        0.15625        0.259259        0.183767        0        
C1        C        0.125        0.351852        0.183767        0        
C2        C        0.15625        0.407408        0.183767        0        
C3        C        0.125        0.42592500000000005        0.183767        0        
C4        C        0.15625        0.37037        0.183767        0        
C1        C        0.125        0.46296300000000007        0.183767        0        
C2        C        0.15625        0.518519        0.183767        0        
C3        C        0.125        0.537037        0.183767        0        
C4        C        0.15625        0.481481        0.183767        0        
C1        C        0.125        0.574075        0.183767        0        
C2        C        0.15625        0.62963        0.183767        0        
C3        C        0.125        0.648148        0.183767        0        
C4        C        0.15625        0.592592        0.183767        0        
C1        C        0.1875        0.018519        0.183767        0        
C2        C        0.21875        0.074075        0.183767        0        
C3        C        0.1875        0.092592        0.183767        0        
C4        C        0.21875        0.037037        0.183767        0        
C1        C        0.1875        0.12963        0.183767        0        
C2        C        0.21875        0.185185        0.183767        0        
C3        C        0.1875        0.203703        0.183767        0        
C4        C        0.21875        0.148148        0.183767        0        
C1        C        0.1875        0.24074099999999998        0.183767        0        
C2        C        0.21875        0.296297        0.183767        0        
C3        C        0.1875        0.314815        0.183767        0        
C4        C        0.21875        0.259259        0.183767        0        
C1        C        0.1875        0.351852        0.183767        0        
C2        C        0.21875        0.407408        0.183767        0        
C3        C        0.1875        0.42592500000000005        0.183767        0        
C4        C        0.21875        0.37037        0.183767        0        
C1        C        0.1875        0.46296300000000007        0.183767        0        
C2        C        0.21875        0.518519        0.183767        0        
C3        C        0.1875        0.537037        0.183767        0        
C4        C        0.21875        0.481481        0.183767        0        
C1        C        0.1875        0.574075        0.183767        0        
C2        C        0.21875        0.62963        0.183767        0        
C3        C        0.1875        0.648148        0.183767        0        
C4        C        0.21875        0.592592        0.183767        0        
C1        C        0.25        0.018519        0.183767        0        
C2        C        0.28125        0.074075        0.183767        0        
C3        C        0.25        0.092592        0.183767        0        
C4        C        0.28125        0.037037        0.183767        0        
C1        C        0.25        0.12963        0.183767        0        
C2        C        0.28125        0.185185        0.183767        0        
C3        C        0.25        0.203703        0.183767        0        
C4        C        0.28125        0.148148        0.183767        0        
C1        C        0.25        0.24074099999999998        0.183767        0        
C2        C        0.28125        0.296297        0.183767        0        
C3        C        0.25        0.314815        0.183767        0        
C4        C        0.28125        0.259259        0.183767        0        
C1        C        0.25        0.351852        0.183767        0        
C2        C        0.28125        0.407408        0.183767        0        
C3        C        0.25        0.42592500000000005        0.183767        0        
C4        C        0.28125        0.37037        0.183767        0        
C1        C        0.25        0.46296300000000007        0.183767        0        
C2        C        0.28125        0.518519        0.183767        0        
C3        C        0.25        0.537037        0.183767        0        
C4        C        0.28125        0.481481        0.183767        0        
C1        C        0.25        0.574075        0.183767        0        
C2        C        0.28125        0.62963        0.183767        0        
C3        C        0.25        0.648148        0.183767        0        
C4        C        0.28125        0.592592        0.183767        0        
C1        C        0.3125        0.018519        0.183767        0        
C2        C        0.34375        0.074075        0.183767        0        
C3        C        0.3125        0.092592        0.183767        0        
C4        C        0.34375        0.037037        0.183767        0        
C1        C        0.3125        0.12963        0.183767        0        
C2        C        0.34375        0.185185        0.183767        0        
C3        C        0.3125        0.203703        0.183767        0        
C4        C        0.34375        0.148148        0.183767        0        
C1        C        0.3125        0.24074099999999998        0.183767        0        
C2        C        0.34375        0.296297        0.183767        0        
C3        C        0.3125        0.314815        0.183767        0        
C4        C        0.34375        0.259259        0.183767        0        
C1        C        0.3125        0.351852        0.183767        0        
C2        C        0.34375        0.407408        0.183767        0        
C3        C        0.3125        0.42592500000000005        0.183767        0        
C4        C        0.34375        0.37037        0.183767        0        
C1        C        0.3125        0.46296300000000007        0.183767        0        
C2        C        0.34375        0.518519        0.183767        0        
C3        C        0.3125        0.537037        0.183767        0        
C4        C        0.34375        0.481481        0.183767        0        
C1        C        0.3125        0.574075        0.183767        0        
C2        C        0.34375        0.62963        0.183767        0        
C3        C        0.3125        0.648148        0.183767        0        
C4        C        0.34375        0.592592        0.183767        0        
C1        C        0.375        0.018519        0.183767        0        
C2        C        0.40625        0.074075        0.183767        0        
C3        C        0.375        0.092592        0.183767        0        
C4        C        0.40625        0.037037        0.183767        0        
C1        C        0.375        0.12963        0.183767        0        
C2        C        0.40625        0.185185        0.183767        0        
C3        C        0.375        0.203703        0.183767        0        
C4        C        0.40625        0.148148        0.183767        0        
C1        C        0.375        0.24074099999999998        0.183767        0        
C2        C        0.40625        0.296297        0.183767        0        
C3        C        0.375        0.314815        0.183767        0        
C4        C        0.40625        0.259259        0.183767        0        
C1        C        0.375        0.351852        0.183767        0        
C2        C        0.40625        0.407408        0.183767        0        
C3        C        0.375        0.42592500000000005        0.183767        0        
C4        C        0.40625        0.37037        0.183767        0        
C1        C        0.375        0.46296300000000007        0.183767        0        
C2        C        0.40625        0.518519        0.183767        0        
C3        C        0.375        0.537037        0.183767        0        
C4        C        0.40625        0.481481        0.183767        0        
C1        C        0.375        0.574075        0.183767        0        
C2        C        0.40625        0.62963        0.183767        0        
C3        C        0.375        0.648148        0.183767        0        
C4        C        0.40625        0.592592        0.183767        0        
C1        C        0.4375        0.018519        0.183767        0        
C2        C        0.46875        0.074075        0.183767        0        
C3        C        0.4375        0.092592        0.183767        0        
C4        C        0.46875        0.037037        0.183767        0        
C1        C        0.4375        0.12963        0.183767        0        
C2        C        0.46875        0.185185        0.183767        0        
C3        C        0.4375        0.203703        0.183767        0        
C4        C        0.46875        0.148148        0.183767        0        
C1        C        0.4375        0.24074099999999998        0.183767        0        
C2        C        0.46875        0.296297        0.183767        0        
C3        C        0.4375        0.314815        0.183767        0        
C4        C        0.46875        0.259259        0.183767        0        
C1        C        0.4375        0.351852        0.183767        0        
C2        C        0.46875        0.407408        0.183767        0        
C3        C        0.4375        0.42592500000000005        0.183767        0        
C4        C        0.46875        0.37037        0.183767        0        
C1        C        0.4375        0.46296300000000007        0.183767        0        
C2        C        0.46875        0.518519        0.183767        0        
C3        C        0.4375        0.537037        0.183767        0        
C4        C        0.46875        0.481481        0.183767        0        
C1        C        0.4375        0.574075        0.183767        0        
C2        C        0.46875        0.62963        0.183767        0        
C3        C        0.4375        0.648148        0.183767        0        
C4        C        0.46875        0.592592        0.183767        0        
C1        C        0.5        0.018519        0.183767        0        
C2        C        0.53125        0.074075        0.183767        0        
C3        C        0.5        0.092592        0.183767        0        
C4        C        0.53125        0.037037        0.183767        0        
C1        C        0.5        0.12963        0.183767        0        
C2        C        0.53125        0.185185        0.183767        0        
C3        C        0.5        0.203703        0.183767        0        
C4        C        0.53125        0.148148        0.183767        0        
C1        C        0.5        0.24074099999999998        0.183767        0        
C2        C        0.53125        0.296297        0.183767        0        
C3        C        0.5        0.314815        0.183767        0        
C4        C        0.53125        0.259259        0.183767        0        
C1        C        0.5        0.351852        0.183767        0        
C2        C        0.53125        0.407408        0.183767        0        
C3        C        0.5        0.42592500000000005        0.183767        0        
C4        C        0.53125        0.37037        0.183767        0        
C1        C        0.5        0.46296300000000007        0.183767        0        
C2        C        0.53125        0.518519        0.183767        0        
C3        C        0.5        0.537037        0.183767        0        
C4        C        0.53125        0.481481        0.183767        0        
C1        C        0.5        0.574075        0.183767        0        
C2        C        0.53125        0.62963        0.183767        0        
C3        C        0.5        0.648148        0.183767        0        
C4        C        0.53125        0.592592        0.183767        0        
C1        C        0.5625        0.018519        0.183767        0        
C2        C        0.59375        0.074075        0.183767        0        
C3        C        0.5625        0.092592        0.183767        0        
C4        C        0.59375        0.037037        0.183767        0        
C1        C        0.5625        0.12963        0.183767        0        
C2        C        0.59375        0.185185        0.183767        0        
C3        C        0.5625        0.203703        0.183767        0        
C4        C        0.59375        0.148148        0.183767        0        
C1        C        0.5625        0.24074099999999998        0.183767        0        
C2        C        0.59375        0.296297        0.183767        0        
C3        C        0.5625        0.314815        0.183767        0        
C4        C        0.59375        0.259259        0.183767        0        
C1        C        0.5625        0.351852        0.183767        0        
C2        C        0.59375        0.407408        0.183767        0        
C3        C        0.5625        0.42592500000000005        0.183767        0        
C4        C        0.59375        0.37037        0.183767        0        
C1        C        0.5625        0.46296300000000007        0.183767        0        
C2        C        0.59375        0.518519        0.183767        0        
C3        C        0.5625        0.537037        0.183767        0        
C4        C        0.59375        0.481481        0.183767        0        
C1        C        0.5625        0.574075        0.183767        0        
C2        C        0.59375        0.62963        0.183767        0        
C3        C        0.5625        0.648148        0.183767        0        
C4        C        0.59375        0.592592        0.183767        0        
C1        C        0.625        0.018519        0.183767        0        
C2        C        0.65625        0.074075        0.183767        0        
C3        C        0.625        0.092592        0.183767        0        
C4        C        0.65625        0.037037        0.183767        0        
C1        C        0.625        0.12963        0.183767        0        
C2        C        0.65625        0.185185        0.183767        0        
C3        C        0.625        0.203703        0.183767        0        
C4        C        0.65625        0.148148        0.183767        0        
C1        C        0.625        0.24074099999999998        0.183767        0        
C2        C        0.65625        0.296297        0.183767        0        
C3        C        0.625        0.314815        0.183767        0        
C4        C        0.65625        0.259259        0.183767        0        
C1        C        0.625        0.351852        0.183767        0        
C2        C        0.65625        0.407408        0.183767        0        
C3        C        0.625        0.42592500000000005        0.183767        0        
C4        C        0.65625        0.37037        0.183767        0        
C1        C        0.625        0.46296300000000007        0.183767        0        
C2        C        0.65625        0.518519        0.183767        0        
C3        C        0.625        0.537037        0.183767        0        
C4        C        0.65625        0.481481        0.183767        0        
C1        C        0.625        0.574075        0.183767        0        
C2        C        0.65625        0.62963        0.183767        0        
C3        C        0.625        0.648148        0.183767        0        
C4        C        0.65625        0.592592        0.183767        0        
C1        C        0.6875        0.018519        0.183767        0        
C2        C        0.71875        0.074075        0.183767        0        
C3        C        0.6875        0.092592        0.183767        0        
C4        C        0.71875        0.037037        0.183767        0        
C1        C        0.6875        0.12963        0.183767        0        
C2        C        0.71875        0.185185        0.183767        0        
C3        C        0.6875        0.203703        0.183767        0        
C4        C        0.71875        0.148148        0.183767        0        
C1        C        0.6875        0.24074099999999998        0.183767        0        
C2        C        0.71875        0.296297        0.183767        0        
C3        C        0.6875        0.314815        0.183767        0        
C4        C        0.71875        0.259259        0.183767        0        
C1        C        0.6875        0.351852        0.183767        0        
C2        C        0.71875        0.407408        0.183767        0        
C3        C        0.6875        0.42592500000000005        0.183767        0        
C4        C        0.71875        0.37037        0.183767        0        
C1        C        0.6875        0.46296300000000007        0.183767        0        
C2        C        0.71875        0.518519        0.183767        0        
C3        C        0.6875        0.537037        0.183767        0        
C4        C        0.71875        0.481481        0.183767        0        
C1        C        0.6875        0.574075        0.183767        0        
C2        C        0.71875        0.62963        0.183767        0        
C3        C        0.6875        0.648148        0.183767        0        
C4        C        0.71875        0.592592        0.183767        0        
C1        C        0.75        0.018519        0.183767        0        
C2        C        0.78125        0.074075        0.183767        0        
C3        C        0.75        0.092592        0.183767        0        
C4        C        0.78125        0.037037        0.183767        0        
C1        C        0.75        0.12963        0.183767        0        
C2        C        0.78125        0.185185        0.183767        0        
C3        C        0.75        0.203703        0.183767        0        
C4        C        0.78125        0.148148        0.183767        0        
C1        C        0.75        0.24074099999999998        0.183767        0        
C2        C        0.78125        0.296297        0.183767        0        
C3        C        0.75        0.314815        0.183767        0        
C4        C        0.78125        0.259259        0.183767        0        
C1        C        0.75        0.351852        0.183767        0        
C2        C        0.78125        0.407408        0.183767        0        
C3        C        0.75        0.42592500000000005        0.183767        0        
C4        C        0.78125        0.37037        0.183767        0        
C1        C        0.75        0.46296300000000007        0.183767        0        
C2        C        0.78125        0.518519        0.183767        0        
C3        C        0.75        0.537037        0.183767        0        
C4        C        0.78125        0.481481        0.183767        0        
C1        C        0.75        0.574075        0.183767        0        
C2        C        0.78125        0.62963        0.183767        0        
C3        C        0.75        0.648148        0.183767        0        
C4        C        0.78125        0.592592        0.183767        0        
C1        C        0.8125        0.018519        0.183767        0        
C2        C        0.84375        0.074075        0.183767        0        
C3        C        0.8125        0.092592        0.183767        0        
C4        C        0.84375        0.037037        0.183767        0        
C1        C        0.8125        0.12963        0.183767        0        
C2        C        0.84375        0.185185        0.183767        0        
C3        C        0.8125        0.203703        0.183767        0        
C4        C        0.84375        0.148148        0.183767        0        
C1        C        0.8125        0.24074099999999998        0.183767        0        
C2        C        0.84375        0.296297        0.183767        0        
C3        C        0.8125        0.314815        0.183767        0        
C4        C        0.84375        0.259259        0.183767        0        
C1        C        0.8125        0.351852        0.183767        0        
C2        C        0.84375        0.407408        0.183767        0        
C3        C        0.8125        0.42592500000000005        0.183767        0        
C4        C        0.84375        0.37037        0.183767        0        
C1        C        0.8125        0.46296300000000007        0.183767        0        
C2        C        0.84375        0.518519        0.183767        0        
C3        C        0.8125        0.537037        0.183767        0        
C4        C        0.84375        0.481481        0.183767        0        
C1        C        0.8125        0.574075        0.183767        0        
C2        C        0.84375        0.62963        0.183767        0        
C3        C        0.8125        0.648148        0.183767        0        
C4        C        0.84375        0.592592        0.183767        0        
C1        C        0.875        0.018519        0.183767        0        
C2        C        0.9062500000000001        0.074075        0.183767        0        
C3        C        0.875        0.092592        0.183767        0        
C4        C        0.9062500000000001        0.037037        0.183767        0        
C1        C        0.875        0.12963        0.183767        0        
C2        C        0.9062500000000001        0.185185        0.183767        0        
C3        C        0.875        0.203703        0.183767        0        
C4        C        0.9062500000000001        0.148148        0.183767        0        
C1        C        0.875        0.24074099999999998        0.183767        0        
C2        C        0.9062500000000001        0.296297        0.183767        0        
C3        C        0.875        0.314815        0.183767        0        
C4        C        0.9062500000000001        0.259259        0.183767        0        
C1        C        0.875        0.351852        0.183767        0        
C2        C        0.9062500000000001        0.407408        0.183767        0        
C3        C        0.875        0.42592500000000005        0.183767        0        
C4        C        0.9062500000000001        0.37037        0.183767        0        
C1        C        0.875        0.46296300000000007        0.183767        0        
C2        C        0.9062500000000001        0.518519        0.183767        0        
C3        C        0.875        0.537037        0.183767        0        
C4        C        0.9062500000000001        0.481481        0.183767        0        
C1        C        0.875        0.574075        0.183767        0        
C2        C        0.9062500000000001        0.62963        0.183767        0        
C3        C        0.875        0.648148        0.183767        0        
C4        C        0.9062500000000001        0.592592        0.183767        0        
C1        C        0.9375        0.018519        0.183767        0        
C2        C        0.9687500000000001        0.074075        0.183767        0        
C3        C        0.9375        0.092592        0.183767        0        
C4        C        0.9687500000000001        0.037037        0.183767        0        
C1        C        0.9375        0.12963        0.183767        0        
C2        C        0.9687500000000001        0.185185        0.183767        0        
C3        C        0.9375        0.203703        0.183767        0        
C4        C        0.9687500000000001        0.148148        0.183767        0        
C1        C        0.9375        0.24074099999999998        0.183767        0        
C2        C        0.9687500000000001        0.296297        0.183767        0        
C3        C        0.9375        0.314815        0.183767        0        
C4        C        0.9687500000000001        0.259259        0.183767        0        
C1        C        0.9375        0.351852        0.183767        0        
C2        C        0.9687500000000001        0.407408        0.183767        0        
C3        C        0.9375        0.42592500000000005        0.183767        0        
C4        C        0.9687500000000001        0.37037        0.183767        0        
C1        C        0.9375        0.46296300000000007        0.183767        0        
C2        C        0.9687500000000001        0.518519        0.183767        0        
C3        C        0.9375        0.537037        0.183767        0        
C4        C        0.9687500000000001        0.481481        0.183767        0        
C1        C        0.9375        0.574075        0.183767        0        
C2        C        0.9687500000000001        0.62963        0.183767        0        
C3        C        0.9375        0.648148        0.183767        0        
C4        C        0.9687500000000001        0.592592        0.183767        0        
C1        C        0.0        0.685186        0.183767        0        
C1        C        0.0625        0.685186        0.183767        0        
C1        C        0.125        0.685186        0.183767        0        
C1        C        0.1875        0.685186        0.183767        0        
C1        C        0.25        0.685186        0.183767        0        
C1        C        0.3125        0.685186        0.183767        0        
C1        C        0.375        0.685186        0.183767        0        
C1        C        0.4375        0.685186        0.183767        0        
C1        C        0.5        0.685186        0.183767        0        
C1        C        0.5625        0.685186        0.183767        0        
C1        C        0.625        0.685186        0.183767        0        
C1        C        0.6875        0.685186        0.183767        0        
C1        C        0.75        0.685186        0.183767        0        
C1        C        0.8125        0.685186        0.183767        0        
C1        C        0.875        0.685186        0.183767        0        
C1        C        0.9375        0.685186        0.183767        0        
C2        C        0.03125        0.740741        0.183767        0        
C2        C        0.09375        0.740741        0.183767        0        
C2        C        0.15625        0.740741        0.183767        0        
C2        C        0.21875        0.740741        0.183767        0        
C2        C        0.28125        0.740741        0.183767        0        
C2        C        0.34375        0.740741        0.183767        0        
C2        C        0.40625        0.740741        0.183767        0        
C2        C        0.46875        0.740741        0.183767        0        
C2        C        0.53125        0.740741        0.183767        0        
C2        C        0.59375        0.740741        0.183767        0        
C2        C        0.65625        0.740741        0.183767        0        
C2        C        0.71875        0.740741        0.183767        0        
C2        C        0.78125        0.740741        0.183767        0        
C2        C        0.84375        0.740741        0.183767        0        
C2        C        0.9062500000000001        0.740741        0.183767        0        
C2        C        0.9687500000000001        0.740741        0.183767        0        
C3        C        0.0        0.759259        0.183767        0        
C3        C        0.0625        0.759259        0.183767        0        
C3        C        0.125        0.759259        0.183767        0        
C3        C        0.1875        0.759259        0.183767        0        
C3        C        0.25        0.759259        0.183767        0        
C3        C        0.3125        0.759259        0.183767        0        
C3        C        0.375        0.759259        0.183767        0        
C3        C        0.4375        0.759259        0.183767        0        
C3        C        0.5        0.759259        0.183767        0        
C3        C        0.5625        0.759259        0.183767        0        
C3        C        0.625        0.759259        0.183767        0        
C3        C        0.6875        0.759259        0.183767        0        
C3        C        0.75        0.759259        0.183767        0        
C3        C        0.8125        0.759259        0.183767        0        
C3        C        0.875        0.759259        0.183767        0        
C3        C        0.9375        0.759259        0.183767        0        
C4        C        0.03125        0.703703        0.183767        0        
C4        C        0.09375        0.703703        0.183767        0        
C4        C        0.15625        0.703703        0.183767        0        
C4        C        0.21875        0.703703        0.183767        0        
C4        C        0.28125        0.703703        0.183767        0        
C4        C        0.34375        0.703703        0.183767        0        
C4        C        0.40625        0.703703        0.183767        0        
C4        C        0.46875        0.703703        0.183767        0        
C4        C        0.53125        0.703703        0.183767        0        
C4        C        0.59375        0.703703        0.183767        0        
C4        C        0.65625        0.703703        0.183767        0        
C4        C        0.71875        0.703703        0.183767        0        
C4        C        0.78125        0.703703        0.183767        0        
C4        C        0.84375        0.703703        0.183767        0        
C4        C        0.9062500000000001        0.703703        0.183767        0        
C4        C        0.9687500000000001        0.703703        0.183767        0        
C1        C        0.0        0.796297        0.183767        0        
C1        C        0.0625        0.796297        0.183767        0        
C1        C        0.125        0.796297        0.183767        0        
C1        C        0.1875        0.796297        0.183767        0        
C1        C        0.25        0.796297        0.183767        0        
C1        C        0.3125        0.796297        0.183767        0        
C1        C        0.375        0.796297        0.183767        0        
C1        C        0.4375        0.796297        0.183767        0        
C1        C        0.5        0.796297        0.183767        0        
C1        C        0.5625        0.796297        0.183767        0        
C1        C        0.625        0.796297        0.183767        0        
C1        C        0.6875        0.796297        0.183767        0        
C1        C        0.75        0.796297        0.183767        0        
C1        C        0.8125        0.796297        0.183767        0        
C1        C        0.875        0.796297        0.183767        0        
C1        C        0.9375        0.796297        0.183767        0        
C2        C        0.03125        0.851852        0.183767        0        
C2        C        0.09375        0.851852        0.183767        0        
C2        C        0.15625        0.851852        0.183767        0        
C2        C        0.21875        0.851852        0.183767        0        
C2        C        0.28125        0.851852        0.183767        0        
C2        C        0.34375        0.851852        0.183767        0        
C2        C        0.40625        0.851852        0.183767        0        
C2        C        0.46875        0.851852        0.183767        0        
C2        C        0.53125        0.851852        0.183767        0        
C2        C        0.59375        0.851852        0.183767        0        
C2        C        0.65625        0.851852        0.183767        0        
C2        C        0.71875        0.851852        0.183767        0        
C2        C        0.78125        0.851852        0.183767        0        
C2        C        0.84375        0.851852        0.183767        0        
C2        C        0.9062500000000001        0.851852        0.183767        0        
C2        C        0.9687500000000001        0.851852        0.183767        0        
C3        C        0.0        0.87037        0.183767        0        
C3        C        0.0625        0.87037        0.183767        0        
C3        C        0.125        0.87037        0.183767        0        
C3        C        0.1875        0.87037        0.183767        0        
C3        C        0.25        0.87037        0.183767        0        
C3        C        0.3125        0.87037        0.183767        0        
C3        C        0.375        0.87037        0.183767        0        
C3        C        0.4375        0.87037        0.183767        0        
C3        C        0.5        0.87037        0.183767        0        
C3        C        0.5625        0.87037        0.183767        0        
C3        C        0.625        0.87037        0.183767        0        
C3        C        0.6875        0.87037        0.183767        0        
C3        C        0.75        0.87037        0.183767        0        
C3        C        0.8125        0.87037        0.183767        0        
C3        C        0.875        0.87037        0.183767        0        
C3        C        0.9375        0.87037        0.183767        0        
C4        C        0.03125        0.814814        0.183767        0        
C4        C        0.09375        0.814814        0.183767        0        
C4        C        0.15625        0.814814        0.183767        0        
C4        C        0.21875        0.814814        0.183767        0        
C4        C        0.28125        0.814814        0.183767        0        
C4        C        0.34375        0.814814        0.183767        0        
C4        C        0.40625        0.814814        0.183767        0        
C4        C        0.46875        0.814814        0.183767        0        
C4        C        0.53125        0.814814        0.183767        0        
C4        C        0.59375        0.814814        0.183767        0        
C4        C        0.65625        0.814814        0.183767        0        
C4        C        0.71875        0.814814        0.183767        0        
C4        C        0.78125        0.814814        0.183767        0        
C4        C        0.84375        0.814814        0.183767        0        
C4        C        0.9062500000000001        0.814814        0.183767        0        
C4        C        0.9687500000000001        0.814814        0.183767        0        
C1        C        0.0        0.907408        0.183767        0        
C1        C        0.0625        0.907408        0.183767        0        
C1        C        0.125        0.907408        0.183767        0        
C1        C        0.1875        0.907408        0.183767        0        
C1        C        0.25        0.907408        0.183767        0        
C1        C        0.3125        0.907408        0.183767        0        
C1        C        0.375        0.907408        0.183767        0        
C1        C        0.4375        0.907408        0.183767        0        
C1        C        0.5        0.907408        0.183767        0        
C1        C        0.5625        0.907408        0.183767        0        
C1        C        0.625        0.907408        0.183767        0        
C1        C        0.6875        0.907408        0.183767        0        
C1        C        0.75        0.907408        0.183767        0        
C1        C        0.8125        0.907408        0.183767        0        
C1        C        0.875        0.907408        0.183767        0        
C1        C        0.9375        0.907408        0.183767        0        
C2        C        0.03125        0.962963        0.183767        0        
C2        C        0.09375        0.962963        0.183767        0        
C2        C        0.15625        0.962963        0.183767        0        
C2        C        0.21875        0.962963        0.183767        0        
C2        C        0.28125        0.962963        0.183767        0        
C2        C        0.34375        0.962963        0.183767        0        
C2        C        0.40625        0.962963        0.183767        0        
C2        C        0.46875        0.962963        0.183767        0        
C2        C        0.53125        0.962963        0.183767        0        
C2        C        0.59375        0.962963        0.183767        0        
C2        C        0.65625        0.962963        0.183767        0        
C2        C        0.71875        0.962963        0.183767        0        
C2        C        0.78125        0.962963        0.183767        0        
C2        C        0.84375        0.962963        0.183767        0        
C2        C        0.9062500000000001        0.962963        0.183767        0        
C2        C        0.9687500000000001        0.962963        0.183767        0        
C3        C        0.0        0.9814809999999999        0.183767        0        
C3        C        0.0625        0.9814809999999999        0.183767        0        
C3        C        0.125        0.9814809999999999        0.183767        0        
C3        C        0.1875        0.9814809999999999        0.183767        0        
C3        C        0.25        0.9814809999999999        0.183767        0        
C3        C        0.3125        0.9814809999999999        0.183767        0        
C3        C        0.375        0.9814809999999999        0.183767        0        
C3        C        0.4375        0.9814809999999999        0.183767        0        
C3        C        0.5        0.9814809999999999        0.183767        0        
C3        C        0.5625        0.9814809999999999        0.183767        0        
C3        C        0.625        0.9814809999999999        0.183767        0        
C3        C        0.6875        0.9814809999999999        0.183767        0        
C3        C        0.75        0.9814809999999999        0.183767        0        
C3        C        0.8125        0.9814809999999999        0.183767        0        
C3        C        0.875        0.9814809999999999        0.183767        0        
C3        C        0.9375        0.9814809999999999        0.183767        0        
C4        C        0.03125        0.925925        0.183767        0        
C4        C        0.09375        0.925925        0.183767        0        
C4        C        0.15625        0.925925        0.183767        0        
C4        C        0.21875        0.925925        0.183767        0        
C4        C        0.28125        0.925925        0.183767        0        
C4        C        0.34375        0.925925        0.183767        0        
C4        C        0.40625        0.925925        0.183767        0        
C4        C        0.46875        0.925925        0.183767        0        
C4        C        0.53125        0.925925        0.183767        0        
C4        C        0.59375        0.925925        0.183767        0        
C4        C        0.65625        0.925925        0.183767        0        
C4        C        0.71875        0.925925        0.183767        0        
C4        C        0.78125        0.925925        0.183767        0        
C4        C        0.84375        0.925925        0.183767        0        
C4        C        0.9062500000000001        0.925925        0.183767        0        
C4        C        0.9687500000000001        0.925925        0.183767        0        
C1        C        0.0        0.018519        0.235069        0        
C2        C        0.03125        0.074075        0.235069        0        
C3        C        0.0        0.092592        0.235069        0        
C4        C        0.03125        0.037037        0.235069        0        
C1        C        0.0        0.12963        0.235069        0        
C2        C        0.03125        0.185185        0.235069        0        
C3        C        0.0        0.203703        0.235069        0        
C4        C        0.03125        0.148148        0.235069        0        
C1        C        0.0        0.24074099999999998        0.235069        0        
C2        C        0.03125        0.296297        0.235069        0        
C3        C        0.0        0.314815        0.235069        0        
C4        C        0.03125        0.259259        0.235069        0        
C1        C        0.0        0.351852        0.235069        0        
C2        C        0.03125        0.407408        0.235069        0        
C3        C        0.0        0.42592500000000005        0.235069        0        
C4        C        0.03125        0.37037        0.235069        0        
C1        C        0.0        0.46296300000000007        0.235069        0        
C2        C        0.03125        0.518519        0.235069        0        
C3        C        0.0        0.537037        0.235069        0        
C4        C        0.03125        0.481481        0.235069        0        
C1        C        0.0        0.574075        0.235069        0        
C2        C        0.03125        0.62963        0.235069        0        
C3        C        0.0        0.648148        0.235069        0        
C4        C        0.03125        0.592592        0.235069        0        
C1        C        0.0625        0.018519        0.235069        0        
C2        C        0.09375        0.074075        0.235069        0        
C3        C        0.0625        0.092592        0.235069        0        
C4        C        0.09375        0.037037        0.235069        0        
C1        C        0.0625        0.12963        0.235069        0        
C2        C        0.09375        0.185185        0.235069        0        
C3        C        0.0625        0.203703        0.235069        0        
C4        C        0.09375        0.148148        0.235069        0        
C1        C        0.0625        0.24074099999999998        0.235069        0        
C2        C        0.09375        0.296297        0.235069        0        
C3        C        0.0625        0.314815        0.235069        0        
C4        C        0.09375        0.259259        0.235069        0        
C1        C        0.0625        0.351852        0.235069        0        
C2        C        0.09375        0.407408        0.235069        0        
C3        C        0.0625        0.42592500000000005        0.235069        0        
C4        C        0.09375        0.37037        0.235069        0        
C1        C        0.0625        0.46296300000000007        0.235069        0        
C2        C        0.09375        0.518519        0.235069        0        
C3        C        0.0625        0.537037        0.235069        0        
C4        C        0.09375        0.481481        0.235069        0        
C1        C        0.0625        0.574075        0.235069        0        
C2        C        0.09375        0.62963        0.235069        0        
C3        C        0.0625        0.648148        0.235069        0        
C4        C        0.09375        0.592592        0.235069        0        
C1        C        0.125        0.018519        0.235069        0        
C2        C        0.15625        0.074075        0.235069        0        
C3        C        0.125        0.092592        0.235069        0        
C4        C        0.15625        0.037037        0.235069        0        
C1        C        0.125        0.12963        0.235069        0        
C2        C        0.15625        0.185185        0.235069        0        
C3        C        0.125        0.203703        0.235069        0        
C4        C        0.15625        0.148148        0.235069        0        
C1        C        0.125        0.24074099999999998        0.235069        0        
C2        C        0.15625        0.296297        0.235069        0        
C3        C        0.125        0.314815        0.235069        0        
C4        C        0.15625        0.259259        0.235069        0        
C1        C        0.125        0.351852        0.235069        0        
C2        C        0.15625        0.407408        0.235069        0        
C3        C        0.125        0.42592500000000005        0.235069        0        
C4        C        0.15625        0.37037        0.235069        0        
C1        C        0.125        0.46296300000000007        0.235069        0        
C2        C        0.15625        0.518519        0.235069        0        
C3        C        0.125        0.537037        0.235069        0        
C4        C        0.15625        0.481481        0.235069        0        
C1        C        0.125        0.574075        0.235069        0        
C2        C        0.15625        0.62963        0.235069        0        
C3        C        0.125        0.648148        0.235069        0        
C4        C        0.15625        0.592592        0.235069        0        
C1        C        0.1875        0.018519        0.235069        0        
C2        C        0.21875        0.074075        0.235069        0        
C3        C        0.1875        0.092592        0.235069        0        
C4        C        0.21875        0.037037        0.235069        0        
C1        C        0.1875        0.12963        0.235069        0        
C2        C        0.21875        0.185185        0.235069        0        
C3        C        0.1875        0.203703        0.235069        0        
C4        C        0.21875        0.148148        0.235069        0        
C1        C        0.1875        0.24074099999999998        0.235069        0        
C2        C        0.21875        0.296297        0.235069        0        
C3        C        0.1875        0.314815        0.235069        0        
C4        C        0.21875        0.259259        0.235069        0        
C1        C        0.1875        0.351852        0.235069        0        
C2        C        0.21875        0.407408        0.235069        0        
C3        C        0.1875        0.42592500000000005        0.235069        0        
C4        C        0.21875        0.37037        0.235069        0        
C1        C        0.1875        0.46296300000000007        0.235069        0        
C2        C        0.21875        0.518519        0.235069        0        
C3        C        0.1875        0.537037        0.235069        0        
C4        C        0.21875        0.481481        0.235069        0        
C1        C        0.1875        0.574075        0.235069        0        
C2        C        0.21875        0.62963        0.235069        0        
C3        C        0.1875        0.648148        0.235069        0        
C4        C        0.21875        0.592592        0.235069        0        
C1        C        0.25        0.018519        0.235069        0        
C2        C        0.28125        0.074075        0.235069        0        
C3        C        0.25        0.092592        0.235069        0        
C4        C        0.28125        0.037037        0.235069        0        
C1        C        0.25        0.12963        0.235069        0        
C2        C        0.28125        0.185185        0.235069        0        
C3        C        0.25        0.203703        0.235069        0        
C4        C        0.28125        0.148148        0.235069        0        
C1        C        0.25        0.24074099999999998        0.235069        0        
C2        C        0.28125        0.296297        0.235069        0        
C3        C        0.25        0.314815        0.235069        0        
C4        C        0.28125        0.259259        0.235069        0        
C1        C        0.25        0.351852        0.235069        0        
C2        C        0.28125        0.407408        0.235069        0        
C3        C        0.25        0.42592500000000005        0.235069        0        
C4        C        0.28125        0.37037        0.235069        0        
C1        C        0.25        0.46296300000000007        0.235069        0        
C2        C        0.28125        0.518519        0.235069        0        
C3        C        0.25        0.537037        0.235069        0        
C4        C        0.28125        0.481481        0.235069        0        
C1        C        0.25        0.574075        0.235069        0        
C2        C        0.28125        0.62963        0.235069        0        
C3        C        0.25        0.648148        0.235069        0        
C4        C        0.28125        0.592592        0.235069        0        
C1        C        0.3125        0.018519        0.235069        0        
C2        C        0.34375        0.074075        0.235069        0        
C3        C        0.3125        0.092592        0.235069        0        
C4        C        0.34375        0.037037        0.235069        0        
C1        C        0.3125        0.12963        0.235069        0        
C2        C        0.34375        0.185185        0.235069        0        
C3        C        0.3125        0.203703        0.235069        0        
C4        C        0.34375        0.148148        0.235069        0        
C1        C        0.3125        0.24074099999999998        0.235069        0        
C2        C        0.34375        0.296297        0.235069        0        
C3        C        0.3125        0.314815        0.235069        0        
C4        C        0.34375        0.259259        0.235069        0        
C1        C        0.3125        0.351852        0.235069        0        
C2        C        0.34375        0.407408        0.235069        0        
C3        C        0.3125        0.42592500000000005        0.235069        0        
C4        C        0.34375        0.37037        0.235069        0        
C1        C        0.3125        0.46296300000000007        0.235069        0        
C2        C        0.34375        0.518519        0.235069        0        
C3        C        0.3125        0.537037        0.235069        0        
C4        C        0.34375        0.481481        0.235069        0        
C1        C        0.3125        0.574075        0.235069        0        
C2        C        0.34375        0.62963        0.235069        0        
C3        C        0.3125        0.648148        0.235069        0        
C4        C        0.34375        0.592592        0.235069        0        
C1        C        0.375        0.018519        0.235069        0        
C2        C        0.40625        0.074075        0.235069        0        
C3        C        0.375        0.092592        0.235069        0        
C4        C        0.40625        0.037037        0.235069        0        
C1        C        0.375        0.12963        0.235069        0        
C2        C        0.40625        0.185185        0.235069        0        
C3        C        0.375        0.203703        0.235069        0        
C4        C        0.40625        0.148148        0.235069        0        
C1        C        0.375        0.24074099999999998        0.235069        0        
C2        C        0.40625        0.296297        0.235069        0        
C3        C        0.375        0.314815        0.235069        0        
C4        C        0.40625        0.259259        0.235069        0        
C1        C        0.375        0.351852        0.235069        0        
C2        C        0.40625        0.407408        0.235069        0        
C3        C        0.375        0.42592500000000005        0.235069        0        
C4        C        0.40625        0.37037        0.235069        0        
C1        C        0.375        0.46296300000000007        0.235069        0        
C2        C        0.40625        0.518519        0.235069        0        
C3        C        0.375        0.537037        0.235069        0        
C4        C        0.40625        0.481481        0.235069        0        
C1        C        0.375        0.574075        0.235069        0        
C2        C        0.40625        0.62963        0.235069        0        
C3        C        0.375        0.648148        0.235069        0        
C4        C        0.40625        0.592592        0.235069        0        
C1        C        0.4375        0.018519        0.235069        0        
C2        C        0.46875        0.074075        0.235069        0        
C3        C        0.4375        0.092592        0.235069        0        
C4        C        0.46875        0.037037        0.235069        0        
C1        C        0.4375        0.12963        0.235069        0        
C2        C        0.46875        0.185185        0.235069        0        
C3        C        0.4375        0.203703        0.235069        0        
C4        C        0.46875        0.148148        0.235069        0        
C1        C        0.4375        0.24074099999999998        0.235069        0        
C2        C        0.46875        0.296297        0.235069        0        
C3        C        0.4375        0.314815        0.235069        0        
C4        C        0.46875        0.259259        0.235069        0        
C1        C        0.4375        0.351852        0.235069        0        
C2        C        0.46875        0.407408        0.235069        0        
C3        C        0.4375        0.42592500000000005        0.235069        0        
C4        C        0.46875        0.37037        0.235069        0        
C1        C        0.4375        0.46296300000000007        0.235069        0        
C2        C        0.46875        0.518519        0.235069        0        
C3        C        0.4375        0.537037        0.235069        0        
C4        C        0.46875        0.481481        0.235069        0        
C1        C        0.4375        0.574075        0.235069        0        
C2        C        0.46875        0.62963        0.235069        0        
C3        C        0.4375        0.648148        0.235069        0        
C4        C        0.46875        0.592592        0.235069        0        
C1        C        0.5        0.018519        0.235069        0        
C2        C        0.53125        0.074075        0.235069        0        
C3        C        0.5        0.092592        0.235069        0        
C4        C        0.53125        0.037037        0.235069        0        
C1        C        0.5        0.12963        0.235069        0        
C2        C        0.53125        0.185185        0.235069        0        
C3        C        0.5        0.203703        0.235069        0        
C4        C        0.53125        0.148148        0.235069        0        
C1        C        0.5        0.24074099999999998        0.235069        0        
C2        C        0.53125        0.296297        0.235069        0        
C3        C        0.5        0.314815        0.235069        0        
C4        C        0.53125        0.259259        0.235069        0        
C1        C        0.5        0.351852        0.235069        0        
C2        C        0.53125        0.407408        0.235069        0        
C3        C        0.5        0.42592500000000005        0.235069        0        
C4        C        0.53125        0.37037        0.235069        0        
C1        C        0.5        0.46296300000000007        0.235069        0        
C2        C        0.53125        0.518519        0.235069        0        
C3        C        0.5        0.537037        0.235069        0        
C4        C        0.53125        0.481481        0.235069        0        
C1        C        0.5        0.574075        0.235069        0        
C2        C        0.53125        0.62963        0.235069        0        
C3        C        0.5        0.648148        0.235069        0        
C4        C        0.53125        0.592592        0.235069        0        
C1        C        0.5625        0.018519        0.235069        0        
C2        C        0.59375        0.074075        0.235069        0        
C3        C        0.5625        0.092592        0.235069        0        
C4        C        0.59375        0.037037        0.235069        0        
C1        C        0.5625        0.12963        0.235069        0        
C2        C        0.59375        0.185185        0.235069        0        
C3        C        0.5625        0.203703        0.235069        0        
C4        C        0.59375        0.148148        0.235069        0        
C1        C        0.5625        0.24074099999999998        0.235069        0        
C2        C        0.59375        0.296297        0.235069        0        
C3        C        0.5625        0.314815        0.235069        0        
C4        C        0.59375        0.259259        0.235069        0        
C1        C        0.5625        0.351852        0.235069        0        
C2        C        0.59375        0.407408        0.235069        0        
C3        C        0.5625        0.42592500000000005        0.235069        0        
C4        C        0.59375        0.37037        0.235069        0        
C1        C        0.5625        0.46296300000000007        0.235069        0        
C2        C        0.59375        0.518519        0.235069        0        
C3        C        0.5625        0.537037        0.235069        0        
C4        C        0.59375        0.481481        0.235069        0        
C1        C        0.5625        0.574075        0.235069        0        
C2        C        0.59375        0.62963        0.235069        0        
C3        C        0.5625        0.648148        0.235069        0        
C4        C        0.59375        0.592592        0.235069        0        
C1        C        0.625        0.018519        0.235069        0        
C2        C        0.65625        0.074075        0.235069        0        
C3        C        0.625        0.092592        0.235069        0        
C4        C        0.65625        0.037037        0.235069        0        
C1        C        0.625        0.12963        0.235069        0        
C2        C        0.65625        0.185185        0.235069        0        
C3        C        0.625        0.203703        0.235069        0        
C4        C        0.65625        0.148148        0.235069        0        
C1        C        0.625        0.24074099999999998        0.235069        0        
C2        C        0.65625        0.296297        0.235069        0        
C3        C        0.625        0.314815        0.235069        0        
C4        C        0.65625        0.259259        0.235069        0        
C1        C        0.625        0.351852        0.235069        0        
C2        C        0.65625        0.407408        0.235069        0        
C3        C        0.625        0.42592500000000005        0.235069        0        
C4        C        0.65625        0.37037        0.235069        0        
C1        C        0.625        0.46296300000000007        0.235069        0        
C2        C        0.65625        0.518519        0.235069        0        
C3        C        0.625        0.537037        0.235069        0        
C4        C        0.65625        0.481481        0.235069        0        
C1        C        0.625        0.574075        0.235069        0        
C2        C        0.65625        0.62963        0.235069        0        
C3        C        0.625        0.648148        0.235069        0        
C4        C        0.65625        0.592592        0.235069        0        
C1        C        0.6875        0.018519        0.235069        0        
C2        C        0.71875        0.074075        0.235069        0        
C3        C        0.6875        0.092592        0.235069        0        
C4        C        0.71875        0.037037        0.235069        0        
C1        C        0.6875        0.12963        0.235069        0        
C2        C        0.71875        0.185185        0.235069        0        
C3        C        0.6875        0.203703        0.235069        0        
C4        C        0.71875        0.148148        0.235069        0        
C1        C        0.6875        0.24074099999999998        0.235069        0        
C2        C        0.71875        0.296297        0.235069        0        
C3        C        0.6875        0.314815        0.235069        0        
C4        C        0.71875        0.259259        0.235069        0        
C1        C        0.6875        0.351852        0.235069        0        
C2        C        0.71875        0.407408        0.235069        0        
C3        C        0.6875        0.42592500000000005        0.235069        0        
C4        C        0.71875        0.37037        0.235069        0        
C1        C        0.6875        0.46296300000000007        0.235069        0        
C2        C        0.71875        0.518519        0.235069        0        
C3        C        0.6875        0.537037        0.235069        0        
C4        C        0.71875        0.481481        0.235069        0        
C1        C        0.6875        0.574075        0.235069        0        
C2        C        0.71875        0.62963        0.235069        0        
C3        C        0.6875        0.648148        0.235069        0        
C4        C        0.71875        0.592592        0.235069        0        
C1        C        0.75        0.018519        0.235069        0        
C2        C        0.78125        0.074075        0.235069        0        
C3        C        0.75        0.092592        0.235069        0        
C4        C        0.78125        0.037037        0.235069        0        
C1        C        0.75        0.12963        0.235069        0        
C2        C        0.78125        0.185185        0.235069        0        
C3        C        0.75        0.203703        0.235069        0        
C4        C        0.78125        0.148148        0.235069        0        
C1        C        0.75        0.24074099999999998        0.235069        0        
C2        C        0.78125        0.296297        0.235069        0        
C3        C        0.75        0.314815        0.235069        0        
C4        C        0.78125        0.259259        0.235069        0        
C1        C        0.75        0.351852        0.235069        0        
C2        C        0.78125        0.407408        0.235069        0        
C3        C        0.75        0.42592500000000005        0.235069        0        
C4        C        0.78125        0.37037        0.235069        0        
C1        C        0.75        0.46296300000000007        0.235069        0        
C2        C        0.78125        0.518519        0.235069        0        
C3        C        0.75        0.537037        0.235069        0        
C4        C        0.78125        0.481481        0.235069        0        
C1        C        0.75        0.574075        0.235069        0        
C2        C        0.78125        0.62963        0.235069        0        
C3        C        0.75        0.648148        0.235069        0        
C4        C        0.78125        0.592592        0.235069        0        
C1        C        0.8125        0.018519        0.235069        0        
C2        C        0.84375        0.074075        0.235069        0        
C3        C        0.8125        0.092592        0.235069        0        
C4        C        0.84375        0.037037        0.235069        0        
C1        C        0.8125        0.12963        0.235069        0        
C2        C        0.84375        0.185185        0.235069        0        
C3        C        0.8125        0.203703        0.235069        0        
C4        C        0.84375        0.148148        0.235069        0        
C1        C        0.8125        0.24074099999999998        0.235069        0        
C2        C        0.84375        0.296297        0.235069        0        
C3        C        0.8125        0.314815        0.235069        0        
C4        C        0.84375        0.259259        0.235069        0        
C1        C        0.8125        0.351852        0.235069        0        
C2        C        0.84375        0.407408        0.235069        0        
C3        C        0.8125        0.42592500000000005        0.235069        0        
C4        C        0.84375        0.37037        0.235069        0        
C1        C        0.8125        0.46296300000000007        0.235069        0        
C2        C        0.84375        0.518519        0.235069        0        
C3        C        0.8125        0.537037        0.235069        0        
C4        C        0.84375        0.481481        0.235069        0        
C1        C        0.8125        0.574075        0.235069        0        
C2        C        0.84375        0.62963        0.235069        0        
C3        C        0.8125        0.648148        0.235069        0        
C4        C        0.84375        0.592592        0.235069        0        
C1        C        0.875        0.018519        0.235069        0        
C2        C        0.9062500000000001        0.074075        0.235069        0        
C3        C        0.875        0.092592        0.235069        0        
C4        C        0.9062500000000001        0.037037        0.235069        0        
C1        C        0.875        0.12963        0.235069        0        
C2        C        0.9062500000000001        0.185185        0.235069        0        
C3        C        0.875        0.203703        0.235069        0        
C4        C        0.9062500000000001        0.148148        0.235069        0        
C1        C        0.875        0.24074099999999998        0.235069        0        
C2        C        0.9062500000000001        0.296297        0.235069        0        
C3        C        0.875        0.314815        0.235069        0        
C4        C        0.9062500000000001        0.259259        0.235069        0        
C1        C        0.875        0.351852        0.235069        0        
C2        C        0.9062500000000001        0.407408        0.235069        0        
C3        C        0.875        0.42592500000000005        0.235069        0        
C4        C        0.9062500000000001        0.37037        0.235069        0        
C1        C        0.875        0.46296300000000007        0.235069        0        
C2        C        0.9062500000000001        0.518519        0.235069        0        
C3        C        0.875        0.537037        0.235069        0        
C4        C        0.9062500000000001        0.481481        0.235069        0        
C1        C        0.875        0.574075        0.235069        0        
C2        C        0.9062500000000001        0.62963        0.235069        0        
C3        C        0.875        0.648148        0.235069        0        
C4        C        0.9062500000000001        0.592592        0.235069        0        
C1        C        0.9375        0.018519        0.235069        0        
C2        C        0.9687500000000001        0.074075        0.235069        0        
C3        C        0.9375        0.092592        0.235069        0        
C4        C        0.9687500000000001        0.037037        0.235069        0        
C1        C        0.9375        0.12963        0.235069        0        
C2        C        0.9687500000000001        0.185185        0.235069        0        
C3        C        0.9375        0.203703        0.235069        0        
C4        C        0.9687500000000001        0.148148        0.235069        0        
C1        C        0.9375        0.24074099999999998        0.235069        0        
C2        C        0.9687500000000001        0.296297        0.235069        0        
C3        C        0.9375        0.314815        0.235069        0        
C4        C        0.9687500000000001        0.259259        0.235069        0        
C1        C        0.9375        0.351852        0.235069        0        
C2        C        0.9687500000000001        0.407408        0.235069        0        
C3        C        0.9375        0.42592500000000005        0.235069        0        
C4        C        0.9687500000000001        0.37037        0.235069        0        
C1        C        0.9375        0.46296300000000007        0.235069        0        
C2        C        0.9687500000000001        0.518519        0.235069        0        
C3        C        0.9375        0.537037        0.235069        0        
C4        C        0.9687500000000001        0.481481        0.235069        0        
C1        C        0.9375        0.574075        0.235069        0        
C2        C        0.9687500000000001        0.62963        0.235069        0        
C3        C        0.9375        0.648148        0.235069        0        
C4        C        0.9687500000000001        0.592592        0.235069        0        
C1        C        0.0        0.685186        0.235069        0        
C1        C        0.0625        0.685186        0.235069        0        
C1        C        0.125        0.685186        0.235069        0        
C1        C        0.1875        0.685186        0.235069        0        
C1        C        0.25        0.685186        0.235069        0        
C1        C        0.3125        0.685186        0.235069        0        
C1        C        0.375        0.685186        0.235069        0        
C1        C        0.4375        0.685186        0.235069        0        
C1        C        0.5        0.685186        0.235069        0        
C1        C        0.5625        0.685186        0.235069        0        
C1        C        0.625        0.685186        0.235069        0        
C1        C        0.6875        0.685186        0.235069        0        
C1        C        0.75        0.685186        0.235069        0        
C1        C        0.8125        0.685186        0.235069        0        
C1        C        0.875        0.685186        0.235069        0        
C1        C        0.9375        0.685186        0.235069        0        
C2        C        0.03125        0.740741        0.235069        0        
C2        C        0.09375        0.740741        0.235069        0        
C2        C        0.15625        0.740741        0.235069        0        
C2        C        0.21875        0.740741        0.235069        0        
C2        C        0.28125        0.740741        0.235069        0        
C2        C        0.34375        0.740741        0.235069        0        
C2        C        0.40625        0.740741        0.235069        0        
C2        C        0.46875        0.740741        0.235069        0        
C2        C        0.53125        0.740741        0.235069        0        
C2        C        0.59375        0.740741        0.235069        0        
C2        C        0.65625        0.740741        0.235069        0        
C2        C        0.71875        0.740741        0.235069        0        
C2        C        0.78125        0.740741        0.235069        0        
C2        C        0.84375        0.740741        0.235069        0        
C2        C        0.9062500000000001        0.740741        0.235069        0        
C2        C        0.9687500000000001        0.740741        0.235069        0        
C3        C        0.0        0.759259        0.235069        0        
C3        C        0.0625        0.759259        0.235069        0        
C3        C        0.125        0.759259        0.235069        0        
C3        C        0.1875        0.759259        0.235069        0        
C3        C        0.25        0.759259        0.235069        0        
C3        C        0.3125        0.759259        0.235069        0        
C3        C        0.375        0.759259        0.235069        0        
C3        C        0.4375        0.759259        0.235069        0        
C3        C        0.5        0.759259        0.235069        0        
C3        C        0.5625        0.759259        0.235069        0        
C3        C        0.625        0.759259        0.235069        0        
C3        C        0.6875        0.759259        0.235069        0        
C3        C        0.75        0.759259        0.235069        0        
C3        C        0.8125        0.759259        0.235069        0        
C3        C        0.875        0.759259        0.235069        0        
C3        C        0.9375        0.759259        0.235069        0        
C4        C        0.03125        0.703703        0.235069        0        
C4        C        0.09375        0.703703        0.235069        0        
C4        C        0.15625        0.703703        0.235069        0        
C4        C        0.21875        0.703703        0.235069        0        
C4        C        0.28125        0.703703        0.235069        0        
C4        C        0.34375        0.703703        0.235069        0        
C4        C        0.40625        0.703703        0.235069        0        
C4        C        0.46875        0.703703        0.235069        0        
C4        C        0.53125        0.703703        0.235069        0        
C4        C        0.59375        0.703703        0.235069        0        
C4        C        0.65625        0.703703        0.235069        0        
C4        C        0.71875        0.703703        0.235069        0        
C4        C        0.78125        0.703703        0.235069        0        
C4        C        0.84375        0.703703        0.235069        0        
C4        C        0.9062500000000001        0.703703        0.235069        0        
C4        C        0.9687500000000001        0.703703        0.235069        0        
C1        C        0.0        0.796297        0.235069        0        
C1        C        0.0625        0.796297        0.235069        0        
C1        C        0.125        0.796297        0.235069        0        
C1        C        0.1875        0.796297        0.235069        0        
C1        C        0.25        0.796297        0.235069        0        
C1        C        0.3125        0.796297        0.235069        0        
C1        C        0.375        0.796297        0.235069        0        
C1        C        0.4375        0.796297        0.235069        0        
C1        C        0.5        0.796297        0.235069        0        
C1        C        0.5625        0.796297        0.235069        0        
C1        C        0.625        0.796297        0.235069        0        
C1        C        0.6875        0.796297        0.235069        0        
C1        C        0.75        0.796297        0.235069        0        
C1        C        0.8125        0.796297        0.235069        0        
C1        C        0.875        0.796297        0.235069        0        
C1        C        0.9375        0.796297        0.235069        0        
C2        C        0.03125        0.851852        0.235069        0        
C2        C        0.09375        0.851852        0.235069        0        
C2        C        0.15625        0.851852        0.235069        0        
C2        C        0.21875        0.851852        0.235069        0        
C2        C        0.28125        0.851852        0.235069        0        
C2        C        0.34375        0.851852        0.235069        0        
C2        C        0.40625        0.851852        0.235069        0        
C2        C        0.46875        0.851852        0.235069        0        
C2        C        0.53125        0.851852        0.235069        0        
C2        C        0.59375        0.851852        0.235069        0        
C2        C        0.65625        0.851852        0.235069        0        
C2        C        0.71875        0.851852        0.235069        0        
C2        C        0.78125        0.851852        0.235069        0        
C2        C        0.84375        0.851852        0.235069        0        
C2        C        0.9062500000000001        0.851852        0.235069        0        
C2        C        0.9687500000000001        0.851852        0.235069        0        
C3        C        0.0        0.87037        0.235069        0        
C3        C        0.0625        0.87037        0.235069        0        
C3        C        0.125        0.87037        0.235069        0        
C3        C        0.1875        0.87037        0.235069        0        
C3        C        0.25        0.87037        0.235069        0        
C3        C        0.3125        0.87037        0.235069        0        
C3        C        0.375        0.87037        0.235069        0        
C3        C        0.4375        0.87037        0.235069        0        
C3        C        0.5        0.87037        0.235069        0        
C3        C        0.5625        0.87037        0.235069        0        
C3        C        0.625        0.87037        0.235069        0        
C3        C        0.6875        0.87037        0.235069        0        
C3        C        0.75        0.87037        0.235069        0        
C3        C        0.8125        0.87037        0.235069        0        
C3        C        0.875        0.87037        0.235069        0        
C3        C        0.9375        0.87037        0.235069        0        
C4        C        0.03125        0.814814        0.235069        0        
C4        C        0.09375        0.814814        0.235069        0        
C4        C        0.15625        0.814814        0.235069        0        
C4        C        0.21875        0.814814        0.235069        0        
C4        C        0.28125        0.814814        0.235069        0        
C4        C        0.34375        0.814814        0.235069        0        
C4        C        0.40625        0.814814        0.235069        0        
C4        C        0.46875        0.814814        0.235069        0        
C4        C        0.53125        0.814814        0.235069        0        
C4        C        0.59375        0.814814        0.235069        0        
C4        C        0.65625        0.814814        0.235069        0        
C4        C        0.71875        0.814814        0.235069        0        
C4        C        0.78125        0.814814        0.235069        0        
C4        C        0.84375        0.814814        0.235069        0        
C4        C        0.9062500000000001        0.814814        0.235069        0        
C4        C        0.9687500000000001        0.814814        0.235069        0        
C1        C        0.0        0.907408        0.235069        0        
C1        C        0.0625        0.907408        0.235069        0        
C1        C        0.125        0.907408        0.235069        0        
C1        C        0.1875        0.907408        0.235069        0        
C1        C        0.25        0.907408        0.235069        0        
C1        C        0.3125        0.907408        0.235069        0        
C1        C        0.375        0.907408        0.235069        0        
C1        C        0.4375        0.907408        0.235069        0        
C1        C        0.5        0.907408        0.235069        0        
C1        C        0.5625        0.907408        0.235069        0        
C1        C        0.625        0.907408        0.235069        0        
C1        C        0.6875        0.907408        0.235069        0        
C1        C        0.75        0.907408        0.235069        0        
C1        C        0.8125        0.907408        0.235069        0        
C1        C        0.875        0.907408        0.235069        0        
C1        C        0.9375        0.907408        0.235069        0        
C2        C        0.03125        0.962963        0.235069        0        
C2        C        0.09375        0.962963        0.235069        0        
C2        C        0.15625        0.962963        0.235069        0        
C2        C        0.21875        0.962963        0.235069        0        
C2        C        0.28125        0.962963        0.235069        0        
C2        C        0.34375        0.962963        0.235069        0        
C2        C        0.40625        0.962963        0.235069        0        
C2        C        0.46875        0.962963        0.235069        0        
C2        C        0.53125        0.962963        0.235069        0        
C2        C        0.59375        0.962963        0.235069        0        
C2        C        0.65625        0.962963        0.235069        0        
C2        C        0.71875        0.962963        0.235069        0        
C2        C        0.78125        0.962963        0.235069        0        
C2        C        0.84375        0.962963        0.235069        0        
C2        C        0.9062500000000001        0.962963        0.235069        0        
C2        C        0.9687500000000001        0.962963        0.235069        0        
C3        C        0.0        0.9814809999999999        0.235069        0        
C3        C        0.0625        0.9814809999999999        0.235069        0        
C3        C        0.125        0.9814809999999999        0.235069        0        
C3        C        0.1875        0.9814809999999999        0.235069        0        
C3        C        0.25        0.9814809999999999        0.235069        0        
C3        C        0.3125        0.9814809999999999        0.235069        0        
C3        C        0.375        0.9814809999999999        0.235069        0        
C3        C        0.4375        0.9814809999999999        0.235069        0        
C3        C        0.5        0.9814809999999999        0.235069        0        
C3        C        0.5625        0.9814809999999999        0.235069        0        
C3        C        0.625        0.9814809999999999        0.235069        0        
C3        C        0.6875        0.9814809999999999        0.235069        0        
C3        C        0.75        0.9814809999999999        0.235069        0        
C3        C        0.8125        0.9814809999999999        0.235069        0        
C3        C        0.875        0.9814809999999999        0.235069        0        
C3        C        0.9375        0.9814809999999999        0.235069        0        
C4        C        0.03125        0.925925        0.235069        0        
C4        C        0.09375        0.925925        0.235069        0        
C4        C        0.15625        0.925925        0.235069        0        
C4        C        0.21875        0.925925        0.235069        0        
C4        C        0.28125        0.925925        0.235069        0        
C4        C        0.34375        0.925925        0.235069        0        
C4        C        0.40625        0.925925        0.235069        0        
C4        C        0.46875        0.925925        0.235069        0        
C4        C        0.53125        0.925925        0.235069        0        
C4        C        0.59375        0.925925        0.235069        0        
C4        C        0.65625        0.925925        0.235069        0        
C4        C        0.71875        0.925925        0.235069        0        
C4        C        0.78125        0.925925        0.235069        0        
C4        C        0.84375        0.925925        0.235069        0        
C4        C        0.9062500000000001        0.925925        0.235069        0        
C4        C        0.9687500000000001        0.925925        0.235069        0        
C_FG        C        0.0        0.018519        0.286371        0.2        
C2        C        0.03125        0.074075        0.286371        0        
C3        C        0.0        0.092592        0.286371        0        
C4        C        0.03125        0.037037        0.286371        0        
C_FG        C        0.0        0.12963        0.286371        0.2        
C2        C        0.03125        0.185185        0.286371        0        
C3        C        0.0        0.203703        0.286371        0        
C4        C        0.03125        0.148148        0.286371        0        
C_FG        C        0.0        0.24074099999999998        0.286371        0.2        
C2        C        0.03125        0.296297        0.286371        0        
C3        C        0.0        0.314815        0.286371        0        
C4        C        0.03125        0.259259        0.286371        0        
C_FG        C        0.0        0.351852        0.286371        0.2        
C2        C        0.03125        0.407408        0.286371        0        
C3        C        0.0        0.42592500000000005        0.286371        0        
C4        C        0.03125        0.37037        0.286371        0        
C_FG        C        0.0        0.46296300000000007        0.286371        0.2        
C2        C        0.03125        0.518519        0.286371        0        
C3        C        0.0        0.537037        0.286371        0        
C4        C        0.03125        0.481481        0.286371        0        
C_FG        C        0.0        0.574075        0.286371        0.2        
C2        C        0.03125        0.62963        0.286371        0        
C3        C        0.0        0.648148        0.286371        0        
C4        C        0.03125        0.592592        0.286371        0        
C1        C        0.0625        0.018519        0.286371        0        
C2        C        0.09375        0.074075        0.286371        0        
C3        C        0.0625        0.092592        0.286371        0        
C4        C        0.09375        0.037037        0.286371        0        
C1        C        0.0625        0.12963        0.286371        0        
C2        C        0.09375        0.185185        0.286371        0        
C3        C        0.0625        0.203703        0.286371        0        
C4        C        0.09375        0.148148        0.286371        0        
C1        C        0.0625        0.24074099999999998        0.286371        0        
C2        C        0.09375        0.296297        0.286371        0        
C3        C        0.0625        0.314815        0.286371        0        
C4        C        0.09375        0.259259        0.286371        0        
C1        C        0.0625        0.351852        0.286371        0        
C2        C        0.09375        0.407408        0.286371        0        
C3        C        0.0625        0.42592500000000005        0.286371        0        
C4        C        0.09375        0.37037        0.286371        0        
C1        C        0.0625        0.46296300000000007        0.286371        0        
C2        C        0.09375        0.518519        0.286371        0        
C3        C        0.0625        0.537037        0.286371        0        
C4        C        0.09375        0.481481        0.286371        0        
C1        C        0.0625        0.574075        0.286371        0        
C2        C        0.09375        0.62963        0.286371        0        
C3        C        0.0625        0.648148        0.286371        0        
C4        C        0.09375        0.592592        0.286371        0        
C_FG        C        0.125        0.018519        0.286371        0.2        
C2        C        0.15625        0.074075        0.286371        0        
C3        C        0.125        0.092592        0.286371        0        
C4        C        0.15625        0.037037        0.286371        0        
C_FG        C        0.125        0.12963        0.286371        0.2        
C2        C        0.15625        0.185185        0.286371        0        
C3        C        0.125        0.203703        0.286371        0        
C4        C        0.15625        0.148148        0.286371        0        
C_FG        C        0.125        0.24074099999999998        0.286371        0.2        
C2        C        0.15625        0.296297        0.286371        0        
C3        C        0.125        0.314815        0.286371        0        
C4        C        0.15625        0.259259        0.286371        0        
C_FG        C        0.125        0.351852        0.286371        0.2        
C2        C        0.15625        0.407408        0.286371        0        
C3        C        0.125        0.42592500000000005        0.286371        0        
C4        C        0.15625        0.37037        0.286371        0        
C_FG        C        0.125        0.46296300000000007        0.286371        0.2        
C2        C        0.15625        0.518519        0.286371        0        
C3        C        0.125        0.537037        0.286371        0        
C4        C        0.15625        0.481481        0.286371        0        
C_FG        C        0.125        0.574075        0.286371        0.2        
C2        C        0.15625        0.62963        0.286371        0        
C3        C        0.125        0.648148        0.286371        0        
C4        C        0.15625        0.592592        0.286371        0        
C1        C        0.1875        0.018519        0.286371        0        
C2        C        0.21875        0.074075        0.286371        0        
C3        C        0.1875        0.092592        0.286371        0        
C4        C        0.21875        0.037037        0.286371        0        
C1        C        0.1875        0.12963        0.286371        0        
C2        C        0.21875        0.185185        0.286371        0        
C3        C        0.1875        0.203703        0.286371        0        
C4        C        0.21875        0.148148        0.286371        0        
C1        C        0.1875        0.24074099999999998        0.286371        0        
C2        C        0.21875        0.296297        0.286371        0        
C3        C        0.1875        0.314815        0.286371        0        
C4        C        0.21875        0.259259        0.286371        0        
C1        C        0.1875        0.351852        0.286371        0        
C2        C        0.21875        0.407408        0.286371        0        
C3        C        0.1875        0.42592500000000005        0.286371        0        
C4        C        0.21875        0.37037        0.286371        0        
C1        C        0.1875        0.46296300000000007        0.286371        0        
C2        C        0.21875        0.518519        0.286371        0        
C3        C        0.1875        0.537037        0.286371        0        
C4        C        0.21875        0.481481        0.286371        0        
C1        C        0.1875        0.574075        0.286371        0        
C2        C        0.21875        0.62963        0.286371        0        
C3        C        0.1875        0.648148        0.286371        0        
C4        C        0.21875        0.592592        0.286371        0        
C_FG        C        0.25        0.018519        0.286371        0.2        
C2        C        0.28125        0.074075        0.286371        0        
C3        C        0.25        0.092592        0.286371        0        
C4        C        0.28125        0.037037        0.286371        0        
C_FG        C        0.25        0.12963        0.286371        0.2        
C2        C        0.28125        0.185185        0.286371        0        
C3        C        0.25        0.203703        0.286371        0        
C4        C        0.28125        0.148148        0.286371        0        
C_FG        C        0.25        0.24074099999999998        0.286371        0.2        
C2        C        0.28125        0.296297        0.286371        0        
C3        C        0.25        0.314815        0.286371        0        
C4        C        0.28125        0.259259        0.286371        0        
C_FG        C        0.25        0.351852        0.286371        0.2        
C2        C        0.28125        0.407408        0.286371        0        
C3        C        0.25        0.42592500000000005        0.286371        0        
C4        C        0.28125        0.37037        0.286371        0        
C_FG        C        0.25        0.46296300000000007        0.286371        0.2        
C2        C        0.28125        0.518519        0.286371        0        
C3        C        0.25        0.537037        0.286371        0        
C4        C        0.28125        0.481481        0.286371        0        
C_FG        C        0.25        0.574075        0.286371        0.2        
C2        C        0.28125        0.62963        0.286371        0        
C3        C        0.25        0.648148        0.286371        0        
C4        C        0.28125        0.592592        0.286371        0        
C1        C        0.3125        0.018519        0.286371        0        
C2        C        0.34375        0.074075        0.286371        0        
C3        C        0.3125        0.092592        0.286371        0        
C4        C        0.34375        0.037037        0.286371        0        
C1        C        0.3125        0.12963        0.286371        0        
C2        C        0.34375        0.185185        0.286371        0        
C3        C        0.3125        0.203703        0.286371        0        
C4        C        0.34375        0.148148        0.286371        0        
C1        C        0.3125        0.24074099999999998        0.286371        0        
C2        C        0.34375        0.296297        0.286371        0        
C3        C        0.3125        0.314815        0.286371        0        
C4        C        0.34375        0.259259        0.286371        0        
C1        C        0.3125        0.351852        0.286371        0        
C2        C        0.34375        0.407408        0.286371        0        
C3        C        0.3125        0.42592500000000005        0.286371        0        
C4        C        0.34375        0.37037        0.286371        0        
C1        C        0.3125        0.46296300000000007        0.286371        0        
C2        C        0.34375        0.518519        0.286371        0        
C3        C        0.3125        0.537037        0.286371        0        
C4        C        0.34375        0.481481        0.286371        0        
C1        C        0.3125        0.574075        0.286371        0        
C2        C        0.34375        0.62963        0.286371        0        
C3        C        0.3125        0.648148        0.286371        0        
C4        C        0.34375        0.592592        0.286371        0        
C_FG        C        0.375        0.018519        0.286371        0.2        
C2        C        0.40625        0.074075        0.286371        0        
C3        C        0.375        0.092592        0.286371        0        
C4        C        0.40625        0.037037        0.286371        0        
C_FG        C        0.375        0.12963        0.286371        0.2        
C2        C        0.40625        0.185185        0.286371        0        
C3        C        0.375        0.203703        0.286371        0        
C4        C        0.40625        0.148148        0.286371        0        
C_FG        C        0.375        0.24074099999999998        0.286371        0.2        
C2        C        0.40625        0.296297        0.286371        0        
C3        C        0.375        0.314815        0.286371        0        
C4        C        0.40625        0.259259        0.286371        0        
C_FG        C        0.375        0.351852        0.286371        0.2        
C2        C        0.40625        0.407408        0.286371        0        
C3        C        0.375        0.42592500000000005        0.286371        0        
C4        C        0.40625        0.37037        0.286371        0        
C_FG        C        0.375        0.46296300000000007        0.286371        0.2        
C2        C        0.40625        0.518519        0.286371        0        
C3        C        0.375        0.537037        0.286371        0        
C4        C        0.40625        0.481481        0.286371        0        
C_FG        C        0.375        0.574075        0.286371        0.2        
C2        C        0.40625        0.62963        0.286371        0        
C3        C        0.375        0.648148        0.286371        0        
C4        C        0.40625        0.592592        0.286371        0        
C1        C        0.4375        0.018519        0.286371        0        
C2        C        0.46875        0.074075        0.286371        0        
C3        C        0.4375        0.092592        0.286371        0        
C4        C        0.46875        0.037037        0.286371        0        
C1        C        0.4375        0.12963        0.286371        0        
C2        C        0.46875        0.185185        0.286371        0        
C3        C        0.4375        0.203703        0.286371        0        
C4        C        0.46875        0.148148        0.286371        0        
C1        C        0.4375        0.24074099999999998        0.286371        0        
C2        C        0.46875        0.296297        0.286371        0        
C3        C        0.4375        0.314815        0.286371        0        
C4        C        0.46875        0.259259        0.286371        0        
C1        C        0.4375        0.351852        0.286371        0        
C2        C        0.46875        0.407408        0.286371        0        
C3        C        0.4375        0.42592500000000005        0.286371        0        
C4        C        0.46875        0.37037        0.286371        0        
C1        C        0.4375        0.46296300000000007        0.286371        0        
C2        C        0.46875        0.518519        0.286371        0        
C3        C        0.4375        0.537037        0.286371        0        
C4        C        0.46875        0.481481        0.286371        0        
C1        C        0.4375        0.574075        0.286371        0        
C2        C        0.46875        0.62963        0.286371        0        
C3        C        0.4375        0.648148        0.286371        0        
C4        C        0.46875        0.592592        0.286371        0        
C_FG        C        0.5        0.018519        0.286371        0.2        
C2        C        0.53125        0.074075        0.286371        0        
C3        C        0.5        0.092592        0.286371        0        
C4        C        0.53125        0.037037        0.286371        0        
C_FG        C        0.5        0.12963        0.286371        0.2        
C2        C        0.53125        0.185185        0.286371        0        
C3        C        0.5        0.203703        0.286371        0        
C4        C        0.53125        0.148148        0.286371        0        
C_FG        C        0.5        0.24074099999999998        0.286371        0.2        
C2        C        0.53125        0.296297        0.286371        0        
C3        C        0.5        0.314815        0.286371        0        
C4        C        0.53125        0.259259        0.286371        0        
C_FG        C        0.5        0.351852        0.286371        0.2        
C2        C        0.53125        0.407408        0.286371        0        
C3        C        0.5        0.42592500000000005        0.286371        0        
C4        C        0.53125        0.37037        0.286371        0        
C_FG        C        0.5        0.46296300000000007        0.286371        0.2        
C2        C        0.53125        0.518519        0.286371        0        
C3        C        0.5        0.537037        0.286371        0        
C4        C        0.53125        0.481481        0.286371        0        
C_FG        C        0.5        0.574075        0.286371        0.2        
C2        C        0.53125        0.62963        0.286371        0        
C3        C        0.5        0.648148        0.286371        0        
C4        C        0.53125        0.592592        0.286371        0        
C1        C        0.5625        0.018519        0.286371        0        
C2        C        0.59375        0.074075        0.286371        0        
C3        C        0.5625        0.092592        0.286371        0        
C4        C        0.59375        0.037037        0.286371        0        
C1        C        0.5625        0.12963        0.286371        0        
C2        C        0.59375        0.185185        0.286371        0        
C3        C        0.5625        0.203703        0.286371        0        
C4        C        0.59375        0.148148        0.286371        0        
C1        C        0.5625        0.24074099999999998        0.286371        0        
C2        C        0.59375        0.296297        0.286371        0        
C3        C        0.5625        0.314815        0.286371        0        
C4        C        0.59375        0.259259        0.286371        0        
C1        C        0.5625        0.351852        0.286371        0        
C2        C        0.59375        0.407408        0.286371        0        
C3        C        0.5625        0.42592500000000005        0.286371        0        
C4        C        0.59375        0.37037        0.286371        0        
C1        C        0.5625        0.46296300000000007        0.286371        0        
C2        C        0.59375        0.518519        0.286371        0        
C3        C        0.5625        0.537037        0.286371        0        
C4        C        0.59375        0.481481        0.286371        0        
C1        C        0.5625        0.574075        0.286371        0        
C2        C        0.59375        0.62963        0.286371        0        
C3        C        0.5625        0.648148        0.286371        0        
C4        C        0.59375        0.592592        0.286371        0        
C_FG        C        0.625        0.018519        0.286371        0.2        
C2        C        0.65625        0.074075        0.286371        0        
C3        C        0.625        0.092592        0.286371        0        
C4        C        0.65625        0.037037        0.286371        0        
C_FG        C        0.625        0.12963        0.286371        0.2        
C2        C        0.65625        0.185185        0.286371        0        
C3        C        0.625        0.203703        0.286371        0        
C4        C        0.65625        0.148148        0.286371        0        
C_FG        C        0.625        0.24074099999999998        0.286371        0.2        
C2        C        0.65625        0.296297        0.286371        0        
C3        C        0.625        0.314815        0.286371        0        
C4        C        0.65625        0.259259        0.286371        0        
C_FG        C        0.625        0.351852        0.286371        0.2        
C2        C        0.65625        0.407408        0.286371        0        
C3        C        0.625        0.42592500000000005        0.286371        0        
C4        C        0.65625        0.37037        0.286371        0        
C_FG        C        0.625        0.46296300000000007        0.286371        0.2        
C2        C        0.65625        0.518519        0.286371        0        
C3        C        0.625        0.537037        0.286371        0        
C4        C        0.65625        0.481481        0.286371        0        
C_FG        C        0.625        0.574075        0.286371        0.2        
C2        C        0.65625        0.62963        0.286371        0        
C3        C        0.625        0.648148        0.286371        0        
C4        C        0.65625        0.592592        0.286371        0        
C1        C        0.6875        0.018519        0.286371        0        
C2        C        0.71875        0.074075        0.286371        0        
C3        C        0.6875        0.092592        0.286371        0        
C4        C        0.71875        0.037037        0.286371        0        
C1        C        0.6875        0.12963        0.286371        0        
C2        C        0.71875        0.185185        0.286371        0        
C3        C        0.6875        0.203703        0.286371        0        
C4        C        0.71875        0.148148        0.286371        0        
C1        C        0.6875        0.24074099999999998        0.286371        0        
C2        C        0.71875        0.296297        0.286371        0        
C3        C        0.6875        0.314815        0.286371        0        
C4        C        0.71875        0.259259        0.286371        0        
C1        C        0.6875        0.351852        0.286371        0        
C2        C        0.71875        0.407408        0.286371        0        
C3        C        0.6875        0.42592500000000005        0.286371        0        
C4        C        0.71875        0.37037        0.286371        0        
C1        C        0.6875        0.46296300000000007        0.286371        0        
C2        C        0.71875        0.518519        0.286371        0        
C3        C        0.6875        0.537037        0.286371        0        
C4        C        0.71875        0.481481        0.286371        0        
C1        C        0.6875        0.574075        0.286371        0        
C2        C        0.71875        0.62963        0.286371        0        
C3        C        0.6875        0.648148        0.286371        0        
C4        C        0.71875        0.592592        0.286371        0        
C_FG        C        0.75        0.018519        0.286371        0.2        
C2        C        0.78125        0.074075        0.286371        0        
C3        C        0.75        0.092592        0.286371        0        
C4        C        0.78125        0.037037        0.286371        0        
C_FG        C        0.75        0.12963        0.286371        0.2        
C2        C        0.78125        0.185185        0.286371        0        
C3        C        0.75        0.203703        0.286371        0        
C4        C        0.78125        0.148148        0.286371        0        
C_FG        C        0.75        0.24074099999999998        0.286371        0.2        
C2        C        0.78125        0.296297        0.286371        0        
C3        C        0.75        0.314815        0.286371        0        
C4        C        0.78125        0.259259        0.286371        0        
C_FG        C        0.75        0.351852        0.286371        0.2        
C2        C        0.78125        0.407408        0.286371        0        
C3        C        0.75        0.42592500000000005        0.286371        0        
C4        C        0.78125        0.37037        0.286371        0        
C_FG        C        0.75        0.46296300000000007        0.286371        0.2        
C2        C        0.78125        0.518519        0.286371        0        
C3        C        0.75        0.537037        0.286371        0        
C4        C        0.78125        0.481481        0.286371        0        
C_FG        C        0.75        0.574075        0.286371        0.2        
C2        C        0.78125        0.62963        0.286371        0        
C3        C        0.75        0.648148        0.286371        0        
C4        C        0.78125        0.592592        0.286371        0        
C1        C        0.8125        0.018519        0.286371        0        
C2        C        0.84375        0.074075        0.286371        0        
C3        C        0.8125        0.092592        0.286371        0        
C4        C        0.84375        0.037037        0.286371        0        
C1        C        0.8125        0.12963        0.286371        0        
C2        C        0.84375        0.185185        0.286371        0        
C3        C        0.8125        0.203703        0.286371        0        
C4        C        0.84375        0.148148        0.286371        0        
C1        C        0.8125        0.24074099999999998        0.286371        0        
C2        C        0.84375        0.296297        0.286371        0        
C3        C        0.8125        0.314815        0.286371        0        
C4        C        0.84375        0.259259        0.286371        0        
C1        C        0.8125        0.351852        0.286371        0        
C2        C        0.84375        0.407408        0.286371        0        
C3        C        0.8125        0.42592500000000005        0.286371        0        
C4        C        0.84375        0.37037        0.286371        0        
C1        C        0.8125        0.46296300000000007        0.286371        0        
C2        C        0.84375        0.518519        0.286371        0        
C3        C        0.8125        0.537037        0.286371        0        
C4        C        0.84375        0.481481        0.286371        0        
C1        C        0.8125        0.574075        0.286371        0        
C2        C        0.84375        0.62963        0.286371        0        
C3        C        0.8125        0.648148        0.286371        0        
C4        C        0.84375        0.592592        0.286371        0        
C_FG        C        0.875        0.018519        0.286371        0.2        
C2        C        0.9062500000000001        0.074075        0.286371        0        
C3        C        0.875        0.092592        0.286371        0        
C4        C        0.9062500000000001        0.037037        0.286371        0        
C_FG        C        0.875        0.12963        0.286371        0.2        
C2        C        0.9062500000000001        0.185185        0.286371        0        
C3        C        0.875        0.203703        0.286371        0        
C4        C        0.9062500000000001        0.148148        0.286371        0        
C_FG        C        0.875        0.24074099999999998        0.286371        0.2        
C2        C        0.9062500000000001        0.296297        0.286371        0        
C3        C        0.875        0.314815        0.286371        0        
C4        C        0.9062500000000001        0.259259        0.286371        0        
C_FG        C        0.875        0.351852        0.286371        0.2        
C2        C        0.9062500000000001        0.407408        0.286371        0        
C3        C        0.875        0.42592500000000005        0.286371        0        
C4        C        0.9062500000000001        0.37037        0.286371        0        
C_FG        C        0.875        0.46296300000000007        0.286371        0.2        
C2        C        0.9062500000000001        0.518519        0.286371        0        
C3        C        0.875        0.537037        0.286371        0        
C4        C        0.9062500000000001        0.481481        0.286371        0        
C_FG        C        0.875        0.574075        0.286371        0.2        
C2        C        0.9062500000000001        0.62963        0.286371        0        
C3        C        0.875        0.648148        0.286371        0        
C4        C        0.9062500000000001        0.592592        0.286371        0        
C1        C        0.9375        0.018519        0.286371        0        
C2        C        0.9687500000000001        0.074075        0.286371        0        
C3        C        0.9375        0.092592        0.286371        0        
C4        C        0.9687500000000001        0.037037        0.286371        0        
C1        C        0.9375        0.12963        0.286371        0        
C2        C        0.9687500000000001        0.185185        0.286371        0        
C3        C        0.9375        0.203703        0.286371        0        
C4        C        0.9687500000000001        0.148148        0.286371        0        
C1        C        0.9375        0.24074099999999998        0.286371        0        
C2        C        0.9687500000000001        0.296297        0.286371        0        
C3        C        0.9375        0.314815        0.286371        0        
C4        C        0.9687500000000001        0.259259        0.286371        0        
C1        C        0.9375        0.351852        0.286371        0        
C2        C        0.9687500000000001        0.407408        0.286371        0        
C3        C        0.9375        0.42592500000000005        0.286371        0        
C4        C        0.9687500000000001        0.37037        0.286371        0        
C1        C        0.9375        0.46296300000000007        0.286371        0        
C2        C        0.9687500000000001        0.518519        0.286371        0        
C3        C        0.9375        0.537037        0.286371        0        
C4        C        0.9687500000000001        0.481481        0.286371        0        
C1        C        0.9375        0.574075        0.286371        0        
C2        C        0.9687500000000001        0.62963        0.286371        0        
C3        C        0.9375        0.648148        0.286371        0        
C4        C        0.9687500000000001        0.592592        0.286371        0        
C_FG        C        0.0        0.685186        0.286371        0.2        
C1        C        0.0625        0.685186        0.286371        0        
C_FG        C        0.125        0.685186        0.286371        0.2        
C1        C        0.1875        0.685186        0.286371        0        
C_FG        C        0.25        0.685186        0.286371        0.2        
C1        C        0.3125        0.685186        0.286371        0        
C_FG        C        0.375        0.685186        0.286371        0.2        
C1        C        0.4375        0.685186        0.286371        0        
C_FG        C        0.5        0.685186        0.286371        0.2        
C1        C        0.5625        0.685186        0.286371        0        
C_FG        C        0.625        0.685186        0.286371        0.2        
C1        C        0.6875        0.685186        0.286371        0        
C_FG        C        0.75        0.685186        0.286371        0.2        
C1        C        0.8125        0.685186        0.286371        0        
C_FG        C        0.875        0.685186        0.286371        0.2        
C1        C        0.9375        0.685186        0.286371        0        
C2        C        0.03125        0.740741        0.286371        0        
C2        C        0.09375        0.740741        0.286371        0        
C2        C        0.15625        0.740741        0.286371        0        
C2        C        0.21875        0.740741        0.286371        0        
C2        C        0.28125        0.740741        0.286371        0        
C2        C        0.34375        0.740741        0.286371        0        
C2        C        0.40625        0.740741        0.286371        0        
C2        C        0.46875        0.740741        0.286371        0        
C2        C        0.53125        0.740741        0.286371        0        
C2        C        0.59375        0.740741        0.286371        0        
C2        C        0.65625        0.740741        0.286371        0        
C2        C        0.71875        0.740741        0.286371        0        
C2        C        0.78125        0.740741        0.286371        0        
C2        C        0.84375        0.740741        0.286371        0        
C2        C        0.9062500000000001        0.740741        0.286371        0        
C2        C        0.9687500000000001        0.740741        0.286371        0        
C3        C        0.0        0.759259        0.286371        0        
C3        C        0.0625        0.759259        0.286371        0        
C3        C        0.125        0.759259        0.286371        0        
C3        C        0.1875        0.759259        0.286371        0        
C3        C        0.25        0.759259        0.286371        0        
C3        C        0.3125        0.759259        0.286371        0        
C3        C        0.375        0.759259        0.286371        0        
C3        C        0.4375        0.759259        0.286371        0        
C3        C        0.5        0.759259        0.286371        0        
C3        C        0.5625        0.759259        0.286371        0        
C3        C        0.625        0.759259        0.286371        0        
C3        C        0.6875        0.759259        0.286371        0        
C3        C        0.75        0.759259        0.286371        0        
C3        C        0.8125        0.759259        0.286371        0        
C3        C        0.875        0.759259        0.286371        0        
C3        C        0.9375        0.759259        0.286371        0        
C4        C        0.03125        0.703703        0.286371        0        
C4        C        0.09375        0.703703        0.286371        0        
C4        C        0.15625        0.703703        0.286371        0        
C4        C        0.21875        0.703703        0.286371        0        
C4        C        0.28125        0.703703        0.286371        0        
C4        C        0.34375        0.703703        0.286371        0        
C4        C        0.40625        0.703703        0.286371        0        
C4        C        0.46875        0.703703        0.286371        0        
C4        C        0.53125        0.703703        0.286371        0        
C4        C        0.59375        0.703703        0.286371        0        
C4        C        0.65625        0.703703        0.286371        0        
C4        C        0.71875        0.703703        0.286371        0        
C4        C        0.78125        0.703703        0.286371        0        
C4        C        0.84375        0.703703        0.286371        0        
C4        C        0.9062500000000001        0.703703        0.286371        0        
C4        C        0.9687500000000001        0.703703        0.286371        0        
C_FG        C        0.0        0.796297        0.286371        0.2        
C1        C        0.0625        0.796297        0.286371        0        
C_FG        C        0.125        0.796297        0.286371        0.2        
C1        C        0.1875        0.796297        0.286371        0        
C_FG        C        0.25        0.796297        0.286371        0.2        
C1        C        0.3125        0.796297        0.286371        0        
C_FG        C        0.375        0.796297        0.286371        0.2        
C1        C        0.4375        0.796297        0.286371        0        
C_FG        C        0.5        0.796297        0.286371        0.2        
C1        C        0.5625        0.796297        0.286371        0        
C_FG        C        0.625        0.796297        0.286371        0.2        
C1        C        0.6875        0.796297        0.286371        0        
C_FG        C        0.75        0.796297        0.286371        0.2        
C1        C        0.8125        0.796297        0.286371        0        
C_FG        C        0.875        0.796297        0.286371        0.2        
C1        C        0.9375        0.796297        0.286371        0        
C2        C        0.03125        0.851852        0.286371        0        
C2        C        0.09375        0.851852        0.286371        0        
C2        C        0.15625        0.851852        0.286371        0        
C2        C        0.21875        0.851852        0.286371        0        
C2        C        0.28125        0.851852        0.286371        0        
C2        C        0.34375        0.851852        0.286371        0        
C2        C        0.40625        0.851852        0.286371        0        
C2        C        0.46875        0.851852        0.286371        0        
C2        C        0.53125        0.851852        0.286371        0        
C2        C        0.59375        0.851852        0.286371        0        
C2        C        0.65625        0.851852        0.286371        0        
C2        C        0.71875        0.851852        0.286371        0        
C2        C        0.78125        0.851852        0.286371        0        
C2        C        0.84375        0.851852        0.286371        0        
C2        C        0.9062500000000001        0.851852        0.286371        0        
C2        C        0.9687500000000001        0.851852        0.286371        0        
C3        C        0.0        0.87037        0.286371        0        
C3        C        0.0625        0.87037        0.286371        0        
C3        C        0.125        0.87037        0.286371        0        
C3        C        0.1875        0.87037        0.286371        0        
C3        C        0.25        0.87037        0.286371        0        
C3        C        0.3125        0.87037        0.286371        0        
C3        C        0.375        0.87037        0.286371        0        
C3        C        0.4375        0.87037        0.286371        0        
C3        C        0.5        0.87037        0.286371        0        
C3        C        0.5625        0.87037        0.286371        0        
C3        C        0.625        0.87037        0.286371        0        
C3        C        0.6875        0.87037        0.286371        0        
C3        C        0.75        0.87037        0.286371        0        
C3        C        0.8125        0.87037        0.286371        0        
C3        C        0.875        0.87037        0.286371        0        
C3        C        0.9375        0.87037        0.286371        0        
C4        C        0.03125        0.814814        0.286371        0        
C4        C        0.09375        0.814814        0.286371        0        
C4        C        0.15625        0.814814        0.286371        0        
C4        C        0.21875        0.814814        0.286371        0        
C4        C        0.28125        0.814814        0.286371        0        
C4        C        0.34375        0.814814        0.286371        0        
C4        C        0.40625        0.814814        0.286371        0        
C4        C        0.46875        0.814814        0.286371        0        
C4        C        0.53125        0.814814        0.286371        0        
C4        C        0.59375        0.814814        0.286371        0        
C4        C        0.65625        0.814814        0.286371        0        
C4        C        0.71875        0.814814        0.286371        0        
C4        C        0.78125        0.814814        0.286371        0        
C4        C        0.84375        0.814814        0.286371        0        
C4        C        0.9062500000000001        0.814814        0.286371        0        
C4        C        0.9687500000000001        0.814814        0.286371        0        
C_FG        C        0.0        0.907408        0.286371        0.2        
C1        C        0.0625        0.907408        0.286371        0        
C_FG        C        0.125        0.907408        0.286371        0.2        
C1        C        0.1875        0.907408        0.286371        0        
C_FG        C        0.25        0.907408        0.286371        0.2        
C1        C        0.3125        0.907408        0.286371        0        
C_FG        C        0.375        0.907408        0.286371        0.2        
C1        C        0.4375        0.907408        0.286371        0        
C_FG        C        0.5        0.907408        0.286371        0.2        
C1        C        0.5625        0.907408        0.286371        0        
C_FG        C        0.625        0.907408        0.286371        0.2        
C1        C        0.6875        0.907408        0.286371        0        
C_FG        C        0.75        0.907408        0.286371        0.2        
C1        C        0.8125        0.907408        0.286371        0        
C_FG        C        0.875        0.907408        0.286371        0.2        
C1        C        0.9375        0.907408        0.286371        0        
C2        C        0.03125        0.962963        0.286371        0        
C2        C        0.09375        0.962963        0.286371        0        
C2        C        0.15625        0.962963        0.286371        0        
C2        C        0.21875        0.962963        0.286371        0        
C2        C        0.28125        0.962963        0.286371        0        
C2        C        0.34375        0.962963        0.286371        0        
C2        C        0.40625        0.962963        0.286371        0        
C2        C        0.46875        0.962963        0.286371        0        
C2        C        0.53125        0.962963        0.286371        0        
C2        C        0.59375        0.962963        0.286371        0        
C2        C        0.65625        0.962963        0.286371        0        
C2        C        0.71875        0.962963        0.286371        0        
C2        C        0.78125        0.962963        0.286371        0        
C2        C        0.84375        0.962963        0.286371        0        
C2        C        0.9062500000000001        0.962963        0.286371        0        
C2        C        0.9687500000000001        0.962963        0.286371        0        
C3        C        0.0        0.9814809999999999        0.286371        0        
C3        C        0.0625        0.9814809999999999        0.286371        0        
C3        C        0.125        0.9814809999999999        0.286371        0        
C3        C        0.1875        0.9814809999999999        0.286371        0        
C3        C        0.25        0.9814809999999999        0.286371        0        
C3        C        0.3125        0.9814809999999999        0.286371        0        
C3        C        0.375        0.9814809999999999        0.286371        0        
C3        C        0.4375        0.9814809999999999        0.286371        0        
C3        C        0.5        0.9814809999999999        0.286371        0        
C3        C        0.5625        0.9814809999999999        0.286371        0        
C3        C        0.625        0.9814809999999999        0.286371        0        
C3        C        0.6875        0.9814809999999999        0.286371        0        
C3        C        0.75        0.9814809999999999        0.286371        0        
C3        C        0.8125        0.9814809999999999        0.286371        0        
C3        C        0.875        0.9814809999999999        0.286371        0        
C3        C        0.9375        0.9814809999999999        0.286371        0        
C4        C        0.03125        0.925925        0.286371        0        
C4        C        0.09375        0.925925        0.286371        0        
C4        C        0.15625        0.925925        0.286371        0        
C4        C        0.21875        0.925925        0.286371        0        
C4        C        0.28125        0.925925        0.286371        0        
C4        C        0.34375        0.925925        0.286371        0        
C4        C        0.40625        0.925925        0.286371        0        
C4        C        0.46875        0.925925        0.286371        0        
C4        C        0.53125        0.925925        0.286371        0        
C4        C        0.59375        0.925925        0.286371        0        
C4        C        0.65625        0.925925        0.286371        0        
C4        C        0.71875        0.925925        0.286371        0        
C4        C        0.78125        0.925925        0.286371        0        
C4        C        0.84375        0.925925        0.286371        0        
C4        C        0.9062500000000001        0.925925        0.286371        0        
C4        C        0.9687500000000001        0.925925        0.286371        0        
C_FG        C        0.0        0.018519        0.71363        0.2        
C2        C        0.03125        0.074075        0.71363        0        
C3        C        0.0        0.092592        0.71363        0        
C4        C        0.03125        0.037037        0.71363        0        
C_FG        C        0.0        0.12963        0.71363        0.2        
C2        C        0.03125        0.185185        0.71363        0        
C3        C        0.0        0.203703        0.71363        0        
C4        C        0.03125        0.148148        0.71363        0        
C_FG        C        0.0        0.24074099999999998        0.71363        0.2        
C2        C        0.03125        0.296297        0.71363        0        
C3        C        0.0        0.314815        0.71363        0        
C4        C        0.03125        0.259259        0.71363        0        
C_FG        C        0.0        0.351852        0.71363        0.2        
C2        C        0.03125        0.407408        0.71363        0        
C3        C        0.0        0.42592500000000005        0.71363        0        
C4        C        0.03125        0.37037        0.71363        0        
C_FG        C        0.0        0.46296300000000007        0.71363        0.2        
C2        C        0.03125        0.518519        0.71363        0        
C3        C        0.0        0.537037        0.71363        0        
C4        C        0.03125        0.481481        0.71363        0        
C_FG        C        0.0        0.574075        0.71363        0.2        
C2        C        0.03125        0.62963        0.71363        0        
C3        C        0.0        0.648148        0.71363        0        
C4        C        0.03125        0.592592        0.71363        0        
C1        C        0.0625        0.018519        0.71363        0        
C2        C        0.09375        0.074075        0.71363        0        
C3        C        0.0625        0.092592        0.71363        0        
C4        C        0.09375        0.037037        0.71363        0        
C1        C        0.0625        0.12963        0.71363        0        
C2        C        0.09375        0.185185        0.71363        0        
C3        C        0.0625        0.203703        0.71363        0        
C4        C        0.09375        0.148148        0.71363        0        
C1        C        0.0625        0.24074099999999998        0.71363        0        
C2        C        0.09375        0.296297        0.71363        0        
C3        C        0.0625        0.314815        0.71363        0        
C4        C        0.09375        0.259259        0.71363        0        
C1        C        0.0625        0.351852        0.71363        0        
C2        C        0.09375        0.407408        0.71363        0        
C3        C        0.0625        0.42592500000000005        0.71363        0        
C4        C        0.09375        0.37037        0.71363        0        
C1        C        0.0625        0.46296300000000007        0.71363        0        
C2        C        0.09375        0.518519        0.71363        0        
C3        C        0.0625        0.537037        0.71363        0        
C4        C        0.09375        0.481481        0.71363        0        
C1        C        0.0625        0.574075        0.71363        0        
C2        C        0.09375        0.62963        0.71363        0        
C3        C        0.0625        0.648148        0.71363        0        
C4        C        0.09375        0.592592        0.71363        0        
C_FG        C        0.125        0.018519        0.71363        0.2        
C2        C        0.15625        0.074075        0.71363        0        
C3        C        0.125        0.092592        0.71363        0        
C4        C        0.15625        0.037037        0.71363        0        
C_FG        C        0.125        0.12963        0.71363        0.2        
C2        C        0.15625        0.185185        0.71363        0        
C3        C        0.125        0.203703        0.71363        0        
C4        C        0.15625        0.148148        0.71363        0        
C_FG        C        0.125        0.24074099999999998        0.71363        0.2        
C2        C        0.15625        0.296297        0.71363        0        
C3        C        0.125        0.314815        0.71363        0        
C4        C        0.15625        0.259259        0.71363        0        
C_FG        C        0.125        0.351852        0.71363        0.2        
C2        C        0.15625        0.407408        0.71363        0        
C3        C        0.125        0.42592500000000005        0.71363        0        
C4        C        0.15625        0.37037        0.71363        0        
C_FG        C        0.125        0.46296300000000007        0.71363        0.2        
C2        C        0.15625        0.518519        0.71363        0        
C3        C        0.125        0.537037        0.71363        0        
C4        C        0.15625        0.481481        0.71363        0        
C_FG        C        0.125        0.574075        0.71363        0.2        
C2        C        0.15625        0.62963        0.71363        0        
C3        C        0.125        0.648148        0.71363        0        
C4        C        0.15625        0.592592        0.71363        0        
C1        C        0.1875        0.018519        0.71363        0        
C2        C        0.21875        0.074075        0.71363        0        
C3        C        0.1875        0.092592        0.71363        0        
C4        C        0.21875        0.037037        0.71363        0        
C1        C        0.1875        0.12963        0.71363        0        
C2        C        0.21875        0.185185        0.71363        0        
C3        C        0.1875        0.203703        0.71363        0        
C4        C        0.21875        0.148148        0.71363        0        
C1        C        0.1875        0.24074099999999998        0.71363        0        
C2        C        0.21875        0.296297        0.71363        0        
C3        C        0.1875        0.314815        0.71363        0        
C4        C        0.21875        0.259259        0.71363        0        
C1        C        0.1875        0.351852        0.71363        0        
C2        C        0.21875        0.407408        0.71363        0        
C3        C        0.1875        0.42592500000000005        0.71363        0        
C4        C        0.21875        0.37037        0.71363        0        
C1        C        0.1875        0.46296300000000007        0.71363        0        
C2        C        0.21875        0.518519        0.71363        0        
C3        C        0.1875        0.537037        0.71363        0        
C4        C        0.21875        0.481481        0.71363        0        
C1        C        0.1875        0.574075        0.71363        0        
C2        C        0.21875        0.62963        0.71363        0        
C3        C        0.1875        0.648148        0.71363        0        
C4        C        0.21875        0.592592        0.71363        0        
C_FG        C        0.25        0.018519        0.71363        0.2        
C2        C        0.28125        0.074075        0.71363        0        
C3        C        0.25        0.092592        0.71363        0        
C4        C        0.28125        0.037037        0.71363        0        
C_FG        C        0.25        0.12963        0.71363        0.2        
C2        C        0.28125        0.185185        0.71363        0        
C3        C        0.25        0.203703        0.71363        0        
C4        C        0.28125        0.148148        0.71363        0        
C_FG        C        0.25        0.24074099999999998        0.71363        0.2        
C2        C        0.28125        0.296297        0.71363        0        
C3        C        0.25        0.314815        0.71363        0        
C4        C        0.28125        0.259259        0.71363        0        
C_FG        C        0.25        0.351852        0.71363        0.2        
C2        C        0.28125        0.407408        0.71363        0        
C3        C        0.25        0.42592500000000005        0.71363        0        
C4        C        0.28125        0.37037        0.71363        0        
C_FG        C        0.25        0.46296300000000007        0.71363        0.2        
C2        C        0.28125        0.518519        0.71363        0        
C3        C        0.25        0.537037        0.71363        0        
C4        C        0.28125        0.481481        0.71363        0        
C_FG        C        0.25        0.574075        0.71363        0.2        
C2        C        0.28125        0.62963        0.71363        0        
C3        C        0.25        0.648148        0.71363        0        
C4        C        0.28125        0.592592        0.71363        0        
C1        C        0.3125        0.018519        0.71363        0        
C2        C        0.34375        0.074075        0.71363        0        
C3        C        0.3125        0.092592        0.71363        0        
C4        C        0.34375        0.037037        0.71363        0        
C1        C        0.3125        0.12963        0.71363        0        
C2        C        0.34375        0.185185        0.71363        0        
C3        C        0.3125        0.203703        0.71363        0        
C4        C        0.34375        0.148148        0.71363        0        
C1        C        0.3125        0.24074099999999998        0.71363        0        
C2        C        0.34375        0.296297        0.71363        0        
C3        C        0.3125        0.314815        0.71363        0        
C4        C        0.34375        0.259259        0.71363        0        
C1        C        0.3125        0.351852        0.71363        0        
C2        C        0.34375        0.407408        0.71363        0        
C3        C        0.3125        0.42592500000000005        0.71363        0        
C4        C        0.34375        0.37037        0.71363        0        
C1        C        0.3125        0.46296300000000007        0.71363        0        
C2        C        0.34375        0.518519        0.71363        0        
C3        C        0.3125        0.537037        0.71363        0        
C4        C        0.34375        0.481481        0.71363        0        
C1        C        0.3125        0.574075        0.71363        0        
C2        C        0.34375        0.62963        0.71363        0        
C3        C        0.3125        0.648148        0.71363        0        
C4        C        0.34375        0.592592        0.71363        0        
C_FG        C        0.375        0.018519        0.71363        0.2        
C2        C        0.40625        0.074075        0.71363        0        
C3        C        0.375        0.092592        0.71363        0        
C4        C        0.40625        0.037037        0.71363        0        
C_FG        C        0.375        0.12963        0.71363        0.2        
C2        C        0.40625        0.185185        0.71363        0        
C3        C        0.375        0.203703        0.71363        0        
C4        C        0.40625        0.148148        0.71363        0        
C_FG        C        0.375        0.24074099999999998        0.71363        0.2        
C2        C        0.40625        0.296297        0.71363        0        
C3        C        0.375        0.314815        0.71363        0        
C4        C        0.40625        0.259259        0.71363        0        
C_FG        C        0.375        0.351852        0.71363        0.2        
C2        C        0.40625        0.407408        0.71363        0        
C3        C        0.375        0.42592500000000005        0.71363        0        
C4        C        0.40625        0.37037        0.71363        0        
C_FG        C        0.375        0.46296300000000007        0.71363        0.2        
C2        C        0.40625        0.518519        0.71363        0        
C3        C        0.375        0.537037        0.71363        0        
C4        C        0.40625        0.481481        0.71363        0        
C_FG        C        0.375        0.574075        0.71363        0.2        
C2        C        0.40625        0.62963        0.71363        0        
C3        C        0.375        0.648148        0.71363        0        
C4        C        0.40625        0.592592        0.71363        0        
C1        C        0.4375        0.018519        0.71363        0        
C2        C        0.46875        0.074075        0.71363        0        
C3        C        0.4375        0.092592        0.71363        0        
C4        C        0.46875        0.037037        0.71363        0        
C1        C        0.4375        0.12963        0.71363        0        
C2        C        0.46875        0.185185        0.71363        0        
C3        C        0.4375        0.203703        0.71363        0        
C4        C        0.46875        0.148148        0.71363        0        
C1        C        0.4375        0.24074099999999998        0.71363        0        
C2        C        0.46875        0.296297        0.71363        0        
C3        C        0.4375        0.314815        0.71363        0        
C4        C        0.46875        0.259259        0.71363        0        
C1        C        0.4375        0.351852        0.71363        0        
C2        C        0.46875        0.407408        0.71363        0        
C3        C        0.4375        0.42592500000000005        0.71363        0        
C4        C        0.46875        0.37037        0.71363        0        
C1        C        0.4375        0.46296300000000007        0.71363        0        
C2        C        0.46875        0.518519        0.71363        0        
C3        C        0.4375        0.537037        0.71363        0        
C4        C        0.46875        0.481481        0.71363        0        
C1        C        0.4375        0.574075        0.71363        0        
C2        C        0.46875        0.62963        0.71363        0        
C3        C        0.4375        0.648148        0.71363        0        
C4        C        0.46875        0.592592        0.71363        0        
C_FG        C        0.5        0.018519        0.71363        0.2        
C2        C        0.53125        0.074075        0.71363        0        
C3        C        0.5        0.092592        0.71363        0        
C4        C        0.53125        0.037037        0.71363        0        
C_FG        C        0.5        0.12963        0.71363        0.2        
C2        C        0.53125        0.185185        0.71363        0        
C3        C        0.5        0.203703        0.71363        0        
C4        C        0.53125        0.148148        0.71363        0        
C_FG        C        0.5        0.24074099999999998        0.71363        0.2        
C2        C        0.53125        0.296297        0.71363        0        
C3        C        0.5        0.314815        0.71363        0        
C4        C        0.53125        0.259259        0.71363        0        
C_FG        C        0.5        0.351852        0.71363        0.2        
C2        C        0.53125        0.407408        0.71363        0        
C3        C        0.5        0.42592500000000005        0.71363        0        
C4        C        0.53125        0.37037        0.71363        0        
C_FG        C        0.5        0.46296300000000007        0.71363        0.2        
C2        C        0.53125        0.518519        0.71363        0        
C3        C        0.5        0.537037        0.71363        0        
C4        C        0.53125        0.481481        0.71363        0        
C_FG        C        0.5        0.574075        0.71363        0.2        
C2        C        0.53125        0.62963        0.71363        0        
C3        C        0.5        0.648148        0.71363        0        
C4        C        0.53125        0.592592        0.71363        0        
C1        C        0.5625        0.018519        0.71363        0        
C2        C        0.59375        0.074075        0.71363        0        
C3        C        0.5625        0.092592        0.71363        0        
C4        C        0.59375        0.037037        0.71363        0        
C1        C        0.5625        0.12963        0.71363        0        
C2        C        0.59375        0.185185        0.71363        0        
C3        C        0.5625        0.203703        0.71363        0        
C4        C        0.59375        0.148148        0.71363        0        
C1        C        0.5625        0.24074099999999998        0.71363        0        
C2        C        0.59375        0.296297        0.71363        0        
C3        C        0.5625        0.314815        0.71363        0        
C4        C        0.59375        0.259259        0.71363        0        
C1        C        0.5625        0.351852        0.71363        0        
C2        C        0.59375        0.407408        0.71363        0        
C3        C        0.5625        0.42592500000000005        0.71363        0        
C4        C        0.59375        0.37037        0.71363        0        
C1        C        0.5625        0.46296300000000007        0.71363        0        
C2        C        0.59375        0.518519        0.71363        0        
C3        C        0.5625        0.537037        0.71363        0        
C4        C        0.59375        0.481481        0.71363        0        
C1        C        0.5625        0.574075        0.71363        0        
C2        C        0.59375        0.62963        0.71363        0        
C3        C        0.5625        0.648148        0.71363        0        
C4        C        0.59375        0.592592        0.71363        0        
C_FG        C        0.625        0.018519        0.71363        0.2        
C2        C        0.65625        0.074075        0.71363        0        
C3        C        0.625        0.092592        0.71363        0        
C4        C        0.65625        0.037037        0.71363        0        
C_FG        C        0.625        0.12963        0.71363        0.2        
C2        C        0.65625        0.185185        0.71363        0        
C3        C        0.625        0.203703        0.71363        0        
C4        C        0.65625        0.148148        0.71363        0        
C_FG        C        0.625        0.24074099999999998        0.71363        0.2        
C2        C        0.65625        0.296297        0.71363        0        
C3        C        0.625        0.314815        0.71363        0        
C4        C        0.65625        0.259259        0.71363        0        
C_FG        C        0.625        0.351852        0.71363        0.2        
C2        C        0.65625        0.407408        0.71363        0        
C3        C        0.625        0.42592500000000005        0.71363        0        
C4        C        0.65625        0.37037        0.71363        0        
C_FG        C        0.625        0.46296300000000007        0.71363        0.2        
C2        C        0.65625        0.518519        0.71363        0        
C3        C        0.625        0.537037        0.71363        0        
C4        C        0.65625        0.481481        0.71363        0        
C_FG        C        0.625        0.574075        0.71363        0.2        
C2        C        0.65625        0.62963        0.71363        0        
C3        C        0.625        0.648148        0.71363        0        
C4        C        0.65625        0.592592        0.71363        0        
C1        C        0.6875        0.018519        0.71363        0        
C2        C        0.71875        0.074075        0.71363        0        
C3        C        0.6875        0.092592        0.71363        0        
C4        C        0.71875        0.037037        0.71363        0        
C1        C        0.6875        0.12963        0.71363        0        
C2        C        0.71875        0.185185        0.71363        0        
C3        C        0.6875        0.203703        0.71363        0        
C4        C        0.71875        0.148148        0.71363        0        
C1        C        0.6875        0.24074099999999998        0.71363        0        
C2        C        0.71875        0.296297        0.71363        0        
C3        C        0.6875        0.314815        0.71363        0        
C4        C        0.71875        0.259259        0.71363        0        
C1        C        0.6875        0.351852        0.71363        0        
C2        C        0.71875        0.407408        0.71363        0        
C3        C        0.6875        0.42592500000000005        0.71363        0        
C4        C        0.71875        0.37037        0.71363        0        
C1        C        0.6875        0.46296300000000007        0.71363        0        
C2        C        0.71875        0.518519        0.71363        0        
C3        C        0.6875        0.537037        0.71363        0        
C4        C        0.71875        0.481481        0.71363        0        
C1        C        0.6875        0.574075        0.71363        0        
C2        C        0.71875        0.62963        0.71363        0        
C3        C        0.6875        0.648148        0.71363        0        
C4        C        0.71875        0.592592        0.71363        0        
C_FG        C        0.75        0.018519        0.71363        0.2        
C2        C        0.78125        0.074075        0.71363        0        
C3        C        0.75        0.092592        0.71363        0        
C4        C        0.78125        0.037037        0.71363        0        
C_FG        C        0.75        0.12963        0.71363        0.2        
C2        C        0.78125        0.185185        0.71363        0        
C3        C        0.75        0.203703        0.71363        0        
C4        C        0.78125        0.148148        0.71363        0        
C_FG        C        0.75        0.24074099999999998        0.71363        0.2        
C2        C        0.78125        0.296297        0.71363        0        
C3        C        0.75        0.314815        0.71363        0        
C4        C        0.78125        0.259259        0.71363        0        
C_FG        C        0.75        0.351852        0.71363        0.2        
C2        C        0.78125        0.407408        0.71363        0        
C3        C        0.75        0.42592500000000005        0.71363        0        
C4        C        0.78125        0.37037        0.71363        0        
C_FG        C        0.75        0.46296300000000007        0.71363        0.2        
C2        C        0.78125        0.518519        0.71363        0        
C3        C        0.75        0.537037        0.71363        0        
C4        C        0.78125        0.481481        0.71363        0        
C_FG        C        0.75        0.574075        0.71363        0.2        
C2        C        0.78125        0.62963        0.71363        0        
C3        C        0.75        0.648148        0.71363        0        
C4        C        0.78125        0.592592        0.71363        0        
C1        C        0.8125        0.018519        0.71363        0        
C2        C        0.84375        0.074075        0.71363        0        
C3        C        0.8125        0.092592        0.71363        0        
C4        C        0.84375        0.037037        0.71363        0        
C1        C        0.8125        0.12963        0.71363        0        
C2        C        0.84375        0.185185        0.71363        0        
C3        C        0.8125        0.203703        0.71363        0        
C4        C        0.84375        0.148148        0.71363        0        
C1        C        0.8125        0.24074099999999998        0.71363        0        
C2        C        0.84375        0.296297        0.71363        0        
C3        C        0.8125        0.314815        0.71363        0        
C4        C        0.84375        0.259259        0.71363        0        
C1        C        0.8125        0.351852        0.71363        0        
C2        C        0.84375        0.407408        0.71363        0        
C3        C        0.8125        0.42592500000000005        0.71363        0        
C4        C        0.84375        0.37037        0.71363        0        
C1        C        0.8125        0.46296300000000007        0.71363        0        
C2        C        0.84375        0.518519        0.71363        0        
C3        C        0.8125        0.537037        0.71363        0        
C4        C        0.84375        0.481481        0.71363        0        
C1        C        0.8125        0.574075        0.71363        0        
C2        C        0.84375        0.62963        0.71363        0        
C3        C        0.8125        0.648148        0.71363        0        
C4        C        0.84375        0.592592        0.71363        0        
C_FG        C        0.875        0.018519        0.71363        0.2        
C2        C        0.9062500000000001        0.074075        0.71363        0        
C3        C        0.875        0.092592        0.71363        0        
C4        C        0.9062500000000001        0.037037        0.71363        0        
C_FG        C        0.875        0.12963        0.71363        0.2        
C2        C        0.9062500000000001        0.185185        0.71363        0        
C3        C        0.875        0.203703        0.71363        0        
C4        C        0.9062500000000001        0.148148        0.71363        0        
C_FG        C        0.875        0.24074099999999998        0.71363        0.2        
C2        C        0.9062500000000001        0.296297        0.71363        0        
C3        C        0.875        0.314815        0.71363        0        
C4        C        0.9062500000000001        0.259259        0.71363        0        
C_FG        C        0.875        0.351852        0.71363        0.2        
C2        C        0.9062500000000001        0.407408        0.71363        0        
C3        C        0.875        0.42592500000000005        0.71363        0        
C4        C        0.9062500000000001        0.37037        0.71363        0        
C_FG        C        0.875        0.46296300000000007        0.71363        0.2        
C2        C        0.9062500000000001        0.518519        0.71363        0        
C3        C        0.875        0.537037        0.71363        0        
C4        C        0.9062500000000001        0.481481        0.71363        0        
C_FG        C        0.875        0.574075        0.71363        0.2        
C2        C        0.9062500000000001        0.62963        0.71363        0        
C3        C        0.875        0.648148        0.71363        0        
C4        C        0.9062500000000001        0.592592        0.71363        0        
C1        C        0.9375        0.018519        0.71363        0        
C2        C        0.9687500000000001        0.074075        0.71363        0        
C3        C        0.9375        0.092592        0.71363        0        
C4        C        0.9687500000000001        0.037037        0.71363        0        
C1        C        0.9375        0.12963        0.71363        0        
C2        C        0.9687500000000001        0.185185        0.71363        0        
C3        C        0.9375        0.203703        0.71363        0        
C4        C        0.9687500000000001        0.148148        0.71363        0        
C1        C        0.9375        0.24074099999999998        0.71363        0        
C2        C        0.9687500000000001        0.296297        0.71363        0        
C3        C        0.9375        0.314815        0.71363        0        
C4        C        0.9687500000000001        0.259259        0.71363        0        
C1        C        0.9375        0.351852        0.71363        0        
C2        C        0.9687500000000001        0.407408        0.71363        0        
C3        C        0.9375        0.42592500000000005        0.71363        0        
C4        C        0.9687500000000001        0.37037        0.71363        0        
C1        C        0.9375        0.46296300000000007        0.71363        0        
C2        C        0.9687500000000001        0.518519        0.71363        0        
C3        C        0.9375        0.537037        0.71363        0        
C4        C        0.9687500000000001        0.481481        0.71363        0        
C1        C        0.9375        0.574075        0.71363        0        
C2        C        0.9687500000000001        0.62963        0.71363        0        
C3        C        0.9375        0.648148        0.71363        0        
C4        C        0.9687500000000001        0.592592        0.71363        0        
C_FG        C        0.0        0.685186        0.71363        0.2        
C1        C        0.0625        0.685186        0.71363        0        
C_FG        C        0.125        0.685186        0.71363        0.2        
C1        C        0.1875        0.685186        0.71363        0        
C_FG        C        0.25        0.685186        0.71363        0.2        
C1        C        0.3125        0.685186        0.71363        0        
C_FG        C        0.375        0.685186        0.71363        0.2        
C1        C        0.4375        0.685186        0.71363        0        
C_FG        C        0.5        0.685186        0.71363        0.2        
C1        C        0.5625        0.685186        0.71363        0        
C_FG        C        0.625        0.685186        0.71363        0.2        
C1        C        0.6875        0.685186        0.71363        0        
C_FG        C        0.75        0.685186        0.71363        0.2        
C1        C        0.8125        0.685186        0.71363        0        
C_FG        C        0.875        0.685186        0.71363        0.2        
C1        C        0.9375        0.685186        0.71363        0        
C2        C        0.03125        0.740741        0.71363        0        
C2        C        0.09375        0.740741        0.71363        0        
C2        C        0.15625        0.740741        0.71363        0        
C2        C        0.21875        0.740741        0.71363        0        
C2        C        0.28125        0.740741        0.71363        0        
C2        C        0.34375        0.740741        0.71363        0        
C2        C        0.40625        0.740741        0.71363        0        
C2        C        0.46875        0.740741        0.71363        0        
C2        C        0.53125        0.740741        0.71363        0        
C2        C        0.59375        0.740741        0.71363        0        
C2        C        0.65625        0.740741        0.71363        0        
C2        C        0.71875        0.740741        0.71363        0        
C2        C        0.78125        0.740741        0.71363        0        
C2        C        0.84375        0.740741        0.71363        0        
C2        C        0.9062500000000001        0.740741        0.71363        0        
C2        C        0.9687500000000001        0.740741        0.71363        0        
C3        C        0.0        0.759259        0.71363        0        
C3        C        0.0625        0.759259        0.71363        0        
C3        C        0.125        0.759259        0.71363        0        
C3        C        0.1875        0.759259        0.71363        0        
C3        C        0.25        0.759259        0.71363        0        
C3        C        0.3125        0.759259        0.71363        0        
C3        C        0.375        0.759259        0.71363        0        
C3        C        0.4375        0.759259        0.71363        0        
C3        C        0.5        0.759259        0.71363        0        
C3        C        0.5625        0.759259        0.71363        0        
C3        C        0.625        0.759259        0.71363        0        
C3        C        0.6875        0.759259        0.71363        0        
C3        C        0.75        0.759259        0.71363        0        
C3        C        0.8125        0.759259        0.71363        0        
C3        C        0.875        0.759259        0.71363        0        
C3        C        0.9375        0.759259        0.71363        0        
C4        C        0.03125        0.703703        0.71363        0        
C4        C        0.09375        0.703703        0.71363        0        
C4        C        0.15625        0.703703        0.71363        0        
C4        C        0.21875        0.703703        0.71363        0        
C4        C        0.28125        0.703703        0.71363        0        
C4        C        0.34375        0.703703        0.71363        0        
C4        C        0.40625        0.703703        0.71363        0        
C4        C        0.46875        0.703703        0.71363        0        
C4        C        0.53125        0.703703        0.71363        0        
C4        C        0.59375        0.703703        0.71363        0        
C4        C        0.65625        0.703703        0.71363        0        
C4        C        0.71875        0.703703        0.71363        0        
C4        C        0.78125        0.703703        0.71363        0        
C4        C        0.84375        0.703703        0.71363        0        
C4        C        0.9062500000000001        0.703703        0.71363        0        
C4        C        0.9687500000000001        0.703703        0.71363        0        
C_FG        C        0.0        0.796297        0.71363        0.2        
C1        C        0.0625        0.796297        0.71363        0        
C_FG        C        0.125        0.796297        0.71363        0.2        
C1        C        0.1875        0.796297        0.71363        0        
C_FG        C        0.25        0.796297        0.71363        0.2        
C1        C        0.3125        0.796297        0.71363        0        
C_FG        C        0.375        0.796297        0.71363        0.2        
C1        C        0.4375        0.796297        0.71363        0        
C_FG        C        0.5        0.796297        0.71363        0.2        
C1        C        0.5625        0.796297        0.71363        0        
C_FG        C        0.625        0.796297        0.71363        0.2        
C1        C        0.6875        0.796297        0.71363        0        
C_FG        C        0.75        0.796297        0.71363        0.2        
C1        C        0.8125        0.796297        0.71363        0        
C_FG        C        0.875        0.796297        0.71363        0.2        
C1        C        0.9375        0.796297        0.71363        0        
C2        C        0.03125        0.851852        0.71363        0        
C2        C        0.09375        0.851852        0.71363        0        
C2        C        0.15625        0.851852        0.71363        0        
C2        C        0.21875        0.851852        0.71363        0        
C2        C        0.28125        0.851852        0.71363        0        
C2        C        0.34375        0.851852        0.71363        0        
C2        C        0.40625        0.851852        0.71363        0        
C2        C        0.46875        0.851852        0.71363        0        
C2        C        0.53125        0.851852        0.71363        0        
C2        C        0.59375        0.851852        0.71363        0        
C2        C        0.65625        0.851852        0.71363        0        
C2        C        0.71875        0.851852        0.71363        0        
C2        C        0.78125        0.851852        0.71363        0        
C2        C        0.84375        0.851852        0.71363        0        
C2        C        0.9062500000000001        0.851852        0.71363        0        
C2        C        0.9687500000000001        0.851852        0.71363        0        
C3        C        0.0        0.87037        0.71363        0        
C3        C        0.0625        0.87037        0.71363        0        
C3        C        0.125        0.87037        0.71363        0        
C3        C        0.1875        0.87037        0.71363        0        
C3        C        0.25        0.87037        0.71363        0        
C3        C        0.3125        0.87037        0.71363        0        
C3        C        0.375        0.87037        0.71363        0        
C3        C        0.4375        0.87037        0.71363        0        
C3        C        0.5        0.87037        0.71363        0        
C3        C        0.5625        0.87037        0.71363        0        
C3        C        0.625        0.87037        0.71363        0        
C3        C        0.6875        0.87037        0.71363        0        
C3        C        0.75        0.87037        0.71363        0        
C3        C        0.8125        0.87037        0.71363        0        
C3        C        0.875        0.87037        0.71363        0        
C3        C        0.9375        0.87037        0.71363        0        
C4        C        0.03125        0.814814        0.71363        0        
C4        C        0.09375        0.814814        0.71363        0        
C4        C        0.15625        0.814814        0.71363        0        
C4        C        0.21875        0.814814        0.71363        0        
C4        C        0.28125        0.814814        0.71363        0        
C4        C        0.34375        0.814814        0.71363        0        
C4        C        0.40625        0.814814        0.71363        0        
C4        C        0.46875        0.814814        0.71363        0        
C4        C        0.53125        0.814814        0.71363        0        
C4        C        0.59375        0.814814        0.71363        0        
C4        C        0.65625        0.814814        0.71363        0        
C4        C        0.71875        0.814814        0.71363        0        
C4        C        0.78125        0.814814        0.71363        0        
C4        C        0.84375        0.814814        0.71363        0        
C4        C        0.9062500000000001        0.814814        0.71363        0        
C4        C        0.9687500000000001        0.814814        0.71363        0        
C_FG        C        0.0        0.907408        0.71363        0.2        
C1        C        0.0625        0.907408        0.71363        0        
C_FG        C        0.125        0.907408        0.71363        0.2        
C1        C        0.1875        0.907408        0.71363        0        
C_FG        C        0.25        0.907408        0.71363        0.2        
C1        C        0.3125        0.907408        0.71363        0        
C_FG        C        0.375        0.907408        0.71363        0.2        
C1        C        0.4375        0.907408        0.71363        0        
C_FG        C        0.5        0.907408        0.71363        0.2        
C1        C        0.5625        0.907408        0.71363        0        
C_FG        C        0.625        0.907408        0.71363        0.2        
C1        C        0.6875        0.907408        0.71363        0        
C_FG        C        0.75        0.907408        0.71363        0.2        
C1        C        0.8125        0.907408        0.71363        0        
C_FG        C        0.875        0.907408        0.71363        0.2        
C1        C        0.9375        0.907408        0.71363        0        
C2        C        0.03125        0.962963        0.71363        0        
C2        C        0.09375        0.962963        0.71363        0        
C2        C        0.15625        0.962963        0.71363        0        
C2        C        0.21875        0.962963        0.71363        0        
C2        C        0.28125        0.962963        0.71363        0        
C2        C        0.34375        0.962963        0.71363        0        
C2        C        0.40625        0.962963        0.71363        0        
C2        C        0.46875        0.962963        0.71363        0        
C2        C        0.53125        0.962963        0.71363        0        
C2        C        0.59375        0.962963        0.71363        0        
C2        C        0.65625        0.962963        0.71363        0        
C2        C        0.71875        0.962963        0.71363        0        
C2        C        0.78125        0.962963        0.71363        0        
C2        C        0.84375        0.962963        0.71363        0        
C2        C        0.9062500000000001        0.962963        0.71363        0        
C2        C        0.9687500000000001        0.962963        0.71363        0        
C3        C        0.0        0.9814809999999999        0.71363        0        
C3        C        0.0625        0.9814809999999999        0.71363        0        
C3        C        0.125        0.9814809999999999        0.71363        0        
C3        C        0.1875        0.9814809999999999        0.71363        0        
C3        C        0.25        0.9814809999999999        0.71363        0        
C3        C        0.3125        0.9814809999999999        0.71363        0        
C3        C        0.375        0.9814809999999999        0.71363        0        
C3        C        0.4375        0.9814809999999999        0.71363        0        
C3        C        0.5        0.9814809999999999        0.71363        0        
C3        C        0.5625        0.9814809999999999        0.71363        0        
C3        C        0.625        0.9814809999999999        0.71363        0        
C3        C        0.6875        0.9814809999999999        0.71363        0        
C3        C        0.75        0.9814809999999999        0.71363        0        
C3        C        0.8125        0.9814809999999999        0.71363        0        
C3        C        0.875        0.9814809999999999        0.71363        0        
C3        C        0.9375        0.9814809999999999        0.71363        0        
C4        C        0.03125        0.925925        0.71363        0        
C4        C        0.09375        0.925925        0.71363        0        
C4        C        0.15625        0.925925        0.71363        0        
C4        C        0.21875        0.925925        0.71363        0        
C4        C        0.28125        0.925925        0.71363        0        
C4        C        0.34375        0.925925        0.71363        0        
C4        C        0.40625        0.925925        0.71363        0        
C4        C        0.46875        0.925925        0.71363        0        
C4        C        0.53125        0.925925        0.71363        0        
C4        C        0.59375        0.925925        0.71363        0        
C4        C        0.65625        0.925925        0.71363        0        
C4        C        0.71875        0.925925        0.71363        0        
C4        C        0.78125        0.925925        0.71363        0        
C4        C        0.84375        0.925925        0.71363        0        
C4        C        0.9062500000000001        0.925925        0.71363        0        
C4        C        0.9687500000000001        0.925925        0.71363        0        
C1        C        0.0        0.018519        0.764932        0        
C2        C        0.03125        0.074075        0.764932        0        
C3        C        0.0        0.092592        0.764932        0        
C4        C        0.03125        0.037037        0.764932        0        
C1        C        0.0        0.12963        0.764932        0        
C2        C        0.03125        0.185185        0.764932        0        
C3        C        0.0        0.203703        0.764932        0        
C4        C        0.03125        0.148148        0.764932        0        
C1        C        0.0        0.24074099999999998        0.764932        0        
C2        C        0.03125        0.296297        0.764932        0        
C3        C        0.0        0.314815        0.764932        0        
C4        C        0.03125        0.259259        0.764932        0        
C1        C        0.0        0.351852        0.764932        0        
C2        C        0.03125        0.407408        0.764932        0        
C3        C        0.0        0.42592500000000005        0.764932        0        
C4        C        0.03125        0.37037        0.764932        0        
C1        C        0.0        0.46296300000000007        0.764932        0        
C2        C        0.03125        0.518519        0.764932        0        
C3        C        0.0        0.537037        0.764932        0        
C4        C        0.03125        0.481481        0.764932        0        
C1        C        0.0        0.574075        0.764932        0        
C2        C        0.03125        0.62963        0.764932        0        
C3        C        0.0        0.648148        0.764932        0        
C4        C        0.03125        0.592592        0.764932        0        
C1        C        0.0625        0.018519        0.764932        0        
C2        C        0.09375        0.074075        0.764932        0        
C3        C        0.0625        0.092592        0.764932        0        
C4        C        0.09375        0.037037        0.764932        0        
C1        C        0.0625        0.12963        0.764932        0        
C2        C        0.09375        0.185185        0.764932        0        
C3        C        0.0625        0.203703        0.764932        0        
C4        C        0.09375        0.148148        0.764932        0        
C1        C        0.0625        0.24074099999999998        0.764932        0        
C2        C        0.09375        0.296297        0.764932        0        
C3        C        0.0625        0.314815        0.764932        0        
C4        C        0.09375        0.259259        0.764932        0        
C1        C        0.0625        0.351852        0.764932        0        
C2        C        0.09375        0.407408        0.764932        0        
C3        C        0.0625        0.42592500000000005        0.764932        0        
C4        C        0.09375        0.37037        0.764932        0        
C1        C        0.0625        0.46296300000000007        0.764932        0        
C2        C        0.09375        0.518519        0.764932        0        
C3        C        0.0625        0.537037        0.764932        0        
C4        C        0.09375        0.481481        0.764932        0        
C1        C        0.0625        0.574075        0.764932        0        
C2        C        0.09375        0.62963        0.764932        0        
C3        C        0.0625        0.648148        0.764932        0        
C4        C        0.09375        0.592592        0.764932        0        
C1        C        0.125        0.018519        0.764932        0        
C2        C        0.15625        0.074075        0.764932        0        
C3        C        0.125        0.092592        0.764932        0        
C4        C        0.15625        0.037037        0.764932        0        
C1        C        0.125        0.12963        0.764932        0        
C2        C        0.15625        0.185185        0.764932        0        
C3        C        0.125        0.203703        0.764932        0        
C4        C        0.15625        0.148148        0.764932        0        
C1        C        0.125        0.24074099999999998        0.764932        0        
C2        C        0.15625        0.296297        0.764932        0        
C3        C        0.125        0.314815        0.764932        0        
C4        C        0.15625        0.259259        0.764932        0        
C1        C        0.125        0.351852        0.764932        0        
C2        C        0.15625        0.407408        0.764932        0        
C3        C        0.125        0.42592500000000005        0.764932        0        
C4        C        0.15625        0.37037        0.764932        0        
C1        C        0.125        0.46296300000000007        0.764932        0        
C2        C        0.15625        0.518519        0.764932        0        
C3        C        0.125        0.537037        0.764932        0        
C4        C        0.15625        0.481481        0.764932        0        
C1        C        0.125        0.574075        0.764932        0        
C2        C        0.15625        0.62963        0.764932        0        
C3        C        0.125        0.648148        0.764932        0        
C4        C        0.15625        0.592592        0.764932        0        
C1        C        0.1875        0.018519        0.764932        0        
C2        C        0.21875        0.074075        0.764932        0        
C3        C        0.1875        0.092592        0.764932        0        
C4        C        0.21875        0.037037        0.764932        0        
C1        C        0.1875        0.12963        0.764932        0        
C2        C        0.21875        0.185185        0.764932        0        
C3        C        0.1875        0.203703        0.764932        0        
C4        C        0.21875        0.148148        0.764932        0        
C1        C        0.1875        0.24074099999999998        0.764932        0        
C2        C        0.21875        0.296297        0.764932        0        
C3        C        0.1875        0.314815        0.764932        0        
C4        C        0.21875        0.259259        0.764932        0        
C1        C        0.1875        0.351852        0.764932        0        
C2        C        0.21875        0.407408        0.764932        0        
C3        C        0.1875        0.42592500000000005        0.764932        0        
C4        C        0.21875        0.37037        0.764932        0        
C1        C        0.1875        0.46296300000000007        0.764932        0        
C2        C        0.21875        0.518519        0.764932        0        
C3        C        0.1875        0.537037        0.764932        0        
C4        C        0.21875        0.481481        0.764932        0        
C1        C        0.1875        0.574075        0.764932        0        
C2        C        0.21875        0.62963        0.764932        0        
C3        C        0.1875        0.648148        0.764932        0        
C4        C        0.21875        0.592592        0.764932        0        
C1        C        0.25        0.018519        0.764932        0        
C2        C        0.28125        0.074075        0.764932        0        
C3        C        0.25        0.092592        0.764932        0        
C4        C        0.28125        0.037037        0.764932        0        
C1        C        0.25        0.12963        0.764932        0        
C2        C        0.28125        0.185185        0.764932        0        
C3        C        0.25        0.203703        0.764932        0        
C4        C        0.28125        0.148148        0.764932        0        
C1        C        0.25        0.24074099999999998        0.764932        0        
C2        C        0.28125        0.296297        0.764932        0        
C3        C        0.25        0.314815        0.764932        0        
C4        C        0.28125        0.259259        0.764932        0        
C1        C        0.25        0.351852        0.764932        0        
C2        C        0.28125        0.407408        0.764932        0        
C3        C        0.25        0.42592500000000005        0.764932        0        
C4        C        0.28125        0.37037        0.764932        0        
C1        C        0.25        0.46296300000000007        0.764932        0        
C2        C        0.28125        0.518519        0.764932        0        
C3        C        0.25        0.537037        0.764932        0        
C4        C        0.28125        0.481481        0.764932        0        
C1        C        0.25        0.574075        0.764932        0        
C2        C        0.28125        0.62963        0.764932        0        
C3        C        0.25        0.648148        0.764932        0        
C4        C        0.28125        0.592592        0.764932        0        
C1        C        0.3125        0.018519        0.764932        0        
C2        C        0.34375        0.074075        0.764932        0        
C3        C        0.3125        0.092592        0.764932        0        
C4        C        0.34375        0.037037        0.764932        0        
C1        C        0.3125        0.12963        0.764932        0        
C2        C        0.34375        0.185185        0.764932        0        
C3        C        0.3125        0.203703        0.764932        0        
C4        C        0.34375        0.148148        0.764932        0        
C1        C        0.3125        0.24074099999999998        0.764932        0        
C2        C        0.34375        0.296297        0.764932        0        
C3        C        0.3125        0.314815        0.764932        0        
C4        C        0.34375        0.259259        0.764932        0        
C1        C        0.3125        0.351852        0.764932        0        
C2        C        0.34375        0.407408        0.764932        0        
C3        C        0.3125        0.42592500000000005        0.764932        0        
C4        C        0.34375        0.37037        0.764932        0        
C1        C        0.3125        0.46296300000000007        0.764932        0        
C2        C        0.34375        0.518519        0.764932        0        
C3        C        0.3125        0.537037        0.764932        0        
C4        C        0.34375        0.481481        0.764932        0        
C1        C        0.3125        0.574075        0.764932        0        
C2        C        0.34375        0.62963        0.764932        0        
C3        C        0.3125        0.648148        0.764932        0        
C4        C        0.34375        0.592592        0.764932        0        
C1        C        0.375        0.018519        0.764932        0        
C2        C        0.40625        0.074075        0.764932        0        
C3        C        0.375        0.092592        0.764932        0        
C4        C        0.40625        0.037037        0.764932        0        
C1        C        0.375        0.12963        0.764932        0        
C2        C        0.40625        0.185185        0.764932        0        
C3        C        0.375        0.203703        0.764932        0        
C4        C        0.40625        0.148148        0.764932        0        
C1        C        0.375        0.24074099999999998        0.764932        0        
C2        C        0.40625        0.296297        0.764932        0        
C3        C        0.375        0.314815        0.764932        0        
C4        C        0.40625        0.259259        0.764932        0        
C1        C        0.375        0.351852        0.764932        0        
C2        C        0.40625        0.407408        0.764932        0        
C3        C        0.375        0.42592500000000005        0.764932        0        
C4        C        0.40625        0.37037        0.764932        0        
C1        C        0.375        0.46296300000000007        0.764932        0        
C2        C        0.40625        0.518519        0.764932        0        
C3        C        0.375        0.537037        0.764932        0        
C4        C        0.40625        0.481481        0.764932        0        
C1        C        0.375        0.574075        0.764932        0        
C2        C        0.40625        0.62963        0.764932        0        
C3        C        0.375        0.648148        0.764932        0        
C4        C        0.40625        0.592592        0.764932        0        
C1        C        0.4375        0.018519        0.764932        0        
C2        C        0.46875        0.074075        0.764932        0        
C3        C        0.4375        0.092592        0.764932        0        
C4        C        0.46875        0.037037        0.764932        0        
C1        C        0.4375        0.12963        0.764932        0        
C2        C        0.46875        0.185185        0.764932        0        
C3        C        0.4375        0.203703        0.764932        0        
C4        C        0.46875        0.148148        0.764932        0        
C1        C        0.4375        0.24074099999999998        0.764932        0        
C2        C        0.46875        0.296297        0.764932        0        
C3        C        0.4375        0.314815        0.764932        0        
C4        C        0.46875        0.259259        0.764932        0        
C1        C        0.4375        0.351852        0.764932        0        
C2        C        0.46875        0.407408        0.764932        0        
C3        C        0.4375        0.42592500000000005        0.764932        0        
C4        C        0.46875        0.37037        0.764932        0        
C1        C        0.4375        0.46296300000000007        0.764932        0        
C2        C        0.46875        0.518519        0.764932        0        
C3        C        0.4375        0.537037        0.764932        0        
C4        C        0.46875        0.481481        0.764932        0        
C1        C        0.4375        0.574075        0.764932        0        
C2        C        0.46875        0.62963        0.764932        0        
C3        C        0.4375        0.648148        0.764932        0        
C4        C        0.46875        0.592592        0.764932        0        
C1        C        0.5        0.018519        0.764932        0        
C2        C        0.53125        0.074075        0.764932        0        
C3        C        0.5        0.092592        0.764932        0        
C4        C        0.53125        0.037037        0.764932        0        
C1        C        0.5        0.12963        0.764932        0        
C2        C        0.53125        0.185185        0.764932        0        
C3        C        0.5        0.203703        0.764932        0        
C4        C        0.53125        0.148148        0.764932        0        
C1        C        0.5        0.24074099999999998        0.764932        0        
C2        C        0.53125        0.296297        0.764932        0        
C3        C        0.5        0.314815        0.764932        0        
C4        C        0.53125        0.259259        0.764932        0        
C1        C        0.5        0.351852        0.764932        0        
C2        C        0.53125        0.407408        0.764932        0        
C3        C        0.5        0.42592500000000005        0.764932        0        
C4        C        0.53125        0.37037        0.764932        0        
C1        C        0.5        0.46296300000000007        0.764932        0        
C2        C        0.53125        0.518519        0.764932        0        
C3        C        0.5        0.537037        0.764932        0        
C4        C        0.53125        0.481481        0.764932        0        
C1        C        0.5        0.574075        0.764932        0        
C2        C        0.53125        0.62963        0.764932        0        
C3        C        0.5        0.648148        0.764932        0        
C4        C        0.53125        0.592592        0.764932        0        
C1        C        0.5625        0.018519        0.764932        0        
C2        C        0.59375        0.074075        0.764932        0        
C3        C        0.5625        0.092592        0.764932        0        
C4        C        0.59375        0.037037        0.764932        0        
C1        C        0.5625        0.12963        0.764932        0        
C2        C        0.59375        0.185185        0.764932        0        
C3        C        0.5625        0.203703        0.764932        0        
C4        C        0.59375        0.148148        0.764932        0        
C1        C        0.5625        0.24074099999999998        0.764932        0        
C2        C        0.59375        0.296297        0.764932        0        
C3        C        0.5625        0.314815        0.764932        0        
C4        C        0.59375        0.259259        0.764932        0        
C1        C        0.5625        0.351852        0.764932        0        
C2        C        0.59375        0.407408        0.764932        0        
C3        C        0.5625        0.42592500000000005        0.764932        0        
C4        C        0.59375        0.37037        0.764932        0        
C1        C        0.5625        0.46296300000000007        0.764932        0        
C2        C        0.59375        0.518519        0.764932        0        
C3        C        0.5625        0.537037        0.764932        0        
C4        C        0.59375        0.481481        0.764932        0        
C1        C        0.5625        0.574075        0.764932        0        
C2        C        0.59375        0.62963        0.764932        0        
C3        C        0.5625        0.648148        0.764932        0        
C4        C        0.59375        0.592592        0.764932        0        
C1        C        0.625        0.018519        0.764932        0        
C2        C        0.65625        0.074075        0.764932        0        
C3        C        0.625        0.092592        0.764932        0        
C4        C        0.65625        0.037037        0.764932        0        
C1        C        0.625        0.12963        0.764932        0        
C2        C        0.65625        0.185185        0.764932        0        
C3        C        0.625        0.203703        0.764932        0        
C4        C        0.65625        0.148148        0.764932        0        
C1        C        0.625        0.24074099999999998        0.764932        0        
C2        C        0.65625        0.296297        0.764932        0        
C3        C        0.625        0.314815        0.764932        0        
C4        C        0.65625        0.259259        0.764932        0        
C1        C        0.625        0.351852        0.764932        0        
C2        C        0.65625        0.407408        0.764932        0        
C3        C        0.625        0.42592500000000005        0.764932        0        
C4        C        0.65625        0.37037        0.764932        0        
C1        C        0.625        0.46296300000000007        0.764932        0        
C2        C        0.65625        0.518519        0.764932        0        
C3        C        0.625        0.537037        0.764932        0        
C4        C        0.65625        0.481481        0.764932        0        
C1        C        0.625        0.574075        0.764932        0        
C2        C        0.65625        0.62963        0.764932        0        
C3        C        0.625        0.648148        0.764932        0        
C4        C        0.65625        0.592592        0.764932        0        
C1        C        0.6875        0.018519        0.764932        0        
C2        C        0.71875        0.074075        0.764932        0        
C3        C        0.6875        0.092592        0.764932        0        
C4        C        0.71875        0.037037        0.764932        0        
C1        C        0.6875        0.12963        0.764932        0        
C2        C        0.71875        0.185185        0.764932        0        
C3        C        0.6875        0.203703        0.764932        0        
C4        C        0.71875        0.148148        0.764932        0        
C1        C        0.6875        0.24074099999999998        0.764932        0        
C2        C        0.71875        0.296297        0.764932        0        
C3        C        0.6875        0.314815        0.764932        0        
C4        C        0.71875        0.259259        0.764932        0        
C1        C        0.6875        0.351852        0.764932        0        
C2        C        0.71875        0.407408        0.764932        0        
C3        C        0.6875        0.42592500000000005        0.764932        0        
C4        C        0.71875        0.37037        0.764932        0        
C1        C        0.6875        0.46296300000000007        0.764932        0        
C2        C        0.71875        0.518519        0.764932        0        
C3        C        0.6875        0.537037        0.764932        0        
C4        C        0.71875        0.481481        0.764932        0        
C1        C        0.6875        0.574075        0.764932        0        
C2        C        0.71875        0.62963        0.764932        0        
C3        C        0.6875        0.648148        0.764932        0        
C4        C        0.71875        0.592592        0.764932        0        
C1        C        0.75        0.018519        0.764932        0        
C2        C        0.78125        0.074075        0.764932        0        
C3        C        0.75        0.092592        0.764932        0        
C4        C        0.78125        0.037037        0.764932        0        
C1        C        0.75        0.12963        0.764932        0        
C2        C        0.78125        0.185185        0.764932        0        
C3        C        0.75        0.203703        0.764932        0        
C4        C        0.78125        0.148148        0.764932        0        
C1        C        0.75        0.24074099999999998        0.764932        0        
C2        C        0.78125        0.296297        0.764932        0        
C3        C        0.75        0.314815        0.764932        0        
C4        C        0.78125        0.259259        0.764932        0        
C1        C        0.75        0.351852        0.764932        0        
C2        C        0.78125        0.407408        0.764932        0        
C3        C        0.75        0.42592500000000005        0.764932        0        
C4        C        0.78125        0.37037        0.764932        0        
C1        C        0.75        0.46296300000000007        0.764932        0        
C2        C        0.78125        0.518519        0.764932        0        
C3        C        0.75        0.537037        0.764932        0        
C4        C        0.78125        0.481481        0.764932        0        
C1        C        0.75        0.574075        0.764932        0        
C2        C        0.78125        0.62963        0.764932        0        
C3        C        0.75        0.648148        0.764932        0        
C4        C        0.78125        0.592592        0.764932        0        
C1        C        0.8125        0.018519        0.764932        0        
C2        C        0.84375        0.074075        0.764932        0        
C3        C        0.8125        0.092592        0.764932        0        
C4        C        0.84375        0.037037        0.764932        0        
C1        C        0.8125        0.12963        0.764932        0        
C2        C        0.84375        0.185185        0.764932        0        
C3        C        0.8125        0.203703        0.764932        0        
C4        C        0.84375        0.148148        0.764932        0        
C1        C        0.8125        0.24074099999999998        0.764932        0        
C2        C        0.84375        0.296297        0.764932        0        
C3        C        0.8125        0.314815        0.764932        0        
C4        C        0.84375        0.259259        0.764932        0        
C1        C        0.8125        0.351852        0.764932        0        
C2        C        0.84375        0.407408        0.764932        0        
C3        C        0.8125        0.42592500000000005        0.764932        0        
C4        C        0.84375        0.37037        0.764932        0        
C1        C        0.8125        0.46296300000000007        0.764932        0        
C2        C        0.84375        0.518519        0.764932        0        
C3        C        0.8125        0.537037        0.764932        0        
C4        C        0.84375        0.481481        0.764932        0        
C1        C        0.8125        0.574075        0.764932        0        
C2        C        0.84375        0.62963        0.764932        0        
C3        C        0.8125        0.648148        0.764932        0        
C4        C        0.84375        0.592592        0.764932        0        
C1        C        0.875        0.018519        0.764932        0        
C2        C        0.9062500000000001        0.074075        0.764932        0        
C3        C        0.875        0.092592        0.764932        0        
C4        C        0.9062500000000001        0.037037        0.764932        0        
C1        C        0.875        0.12963        0.764932        0        
C2        C        0.9062500000000001        0.185185        0.764932        0        
C3        C        0.875        0.203703        0.764932        0        
C4        C        0.9062500000000001        0.148148        0.764932        0        
C1        C        0.875        0.24074099999999998        0.764932        0        
C2        C        0.9062500000000001        0.296297        0.764932        0        
C3        C        0.875        0.314815        0.764932        0        
C4        C        0.9062500000000001        0.259259        0.764932        0        
C1        C        0.875        0.351852        0.764932        0        
C2        C        0.9062500000000001        0.407408        0.764932        0        
C3        C        0.875        0.42592500000000005        0.764932        0        
C4        C        0.9062500000000001        0.37037        0.764932        0        
C1        C        0.875        0.46296300000000007        0.764932        0        
C2        C        0.9062500000000001        0.518519        0.764932        0        
C3        C        0.875        0.537037        0.764932        0        
C4        C        0.9062500000000001        0.481481        0.764932        0        
C1        C        0.875        0.574075        0.764932        0        
C2        C        0.9062500000000001        0.62963        0.764932        0        
C3        C        0.875        0.648148        0.764932        0        
C4        C        0.9062500000000001        0.592592        0.764932        0        
C1        C        0.9375        0.018519        0.764932        0        
C2        C        0.9687500000000001        0.074075        0.764932        0        
C3        C        0.9375        0.092592        0.764932        0        
C4        C        0.9687500000000001        0.037037        0.764932        0        
C1        C        0.9375        0.12963        0.764932        0        
C2        C        0.9687500000000001        0.185185        0.764932        0        
C3        C        0.9375        0.203703        0.764932        0        
C4        C        0.9687500000000001        0.148148        0.764932        0        
C1        C        0.9375        0.24074099999999998        0.764932        0        
C2        C        0.9687500000000001        0.296297        0.764932        0        
C3        C        0.9375        0.314815        0.764932        0        
C4        C        0.9687500000000001        0.259259        0.764932        0        
C1        C        0.9375        0.351852        0.764932        0        
C2        C        0.9687500000000001        0.407408        0.764932        0        
C3        C        0.9375        0.42592500000000005        0.764932        0        
C4        C        0.9687500000000001        0.37037        0.764932        0        
C1        C        0.9375        0.46296300000000007        0.764932        0        
C2        C        0.9687500000000001        0.518519        0.764932        0        
C3        C        0.9375        0.537037        0.764932        0        
C4        C        0.9687500000000001        0.481481        0.764932        0        
C1        C        0.9375        0.574075        0.764932        0        
C2        C        0.9687500000000001        0.62963        0.764932        0        
C3        C        0.9375        0.648148        0.764932        0        
C4        C        0.9687500000000001        0.592592        0.764932        0        
C1        C        0.0        0.685186        0.764932        0        
C1        C        0.0625        0.685186        0.764932        0        
C1        C        0.125        0.685186        0.764932        0        
C1        C        0.1875        0.685186        0.764932        0        
C1        C        0.25        0.685186        0.764932        0        
C1        C        0.3125        0.685186        0.764932        0        
C1        C        0.375        0.685186        0.764932        0        
C1        C        0.4375        0.685186        0.764932        0        
C1        C        0.5        0.685186        0.764932        0        
C1        C        0.5625        0.685186        0.764932        0        
C1        C        0.625        0.685186        0.764932        0        
C1        C        0.6875        0.685186        0.764932        0        
C1        C        0.75        0.685186        0.764932        0        
C1        C        0.8125        0.685186        0.764932        0        
C1        C        0.875        0.685186        0.764932        0        
C1        C        0.9375        0.685186        0.764932        0        
C2        C        0.03125        0.740741        0.764932        0        
C2        C        0.09375        0.740741        0.764932        0        
C2        C        0.15625        0.740741        0.764932        0        
C2        C        0.21875        0.740741        0.764932        0        
C2        C        0.28125        0.740741        0.764932        0        
C2        C        0.34375        0.740741        0.764932        0        
C2        C        0.40625        0.740741        0.764932        0        
C2        C        0.46875        0.740741        0.764932        0        
C2        C        0.53125        0.740741        0.764932        0        
C2        C        0.59375        0.740741        0.764932        0        
C2        C        0.65625        0.740741        0.764932        0        
C2        C        0.71875        0.740741        0.764932        0        
C2        C        0.78125        0.740741        0.764932        0        
C2        C        0.84375        0.740741        0.764932        0        
C2        C        0.9062500000000001        0.740741        0.764932        0        
C2        C        0.9687500000000001        0.740741        0.764932        0        
C3        C        0.0        0.759259        0.764932        0        
C3        C        0.0625        0.759259        0.764932        0        
C3        C        0.125        0.759259        0.764932        0        
C3        C        0.1875        0.759259        0.764932        0        
C3        C        0.25        0.759259        0.764932        0        
C3        C        0.3125        0.759259        0.764932        0        
C3        C        0.375        0.759259        0.764932        0        
C3        C        0.4375        0.759259        0.764932        0        
C3        C        0.5        0.759259        0.764932        0        
C3        C        0.5625        0.759259        0.764932        0        
C3        C        0.625        0.759259        0.764932        0        
C3        C        0.6875        0.759259        0.764932        0        
C3        C        0.75        0.759259        0.764932        0        
C3        C        0.8125        0.759259        0.764932        0        
C3        C        0.875        0.759259        0.764932        0        
C3        C        0.9375        0.759259        0.764932        0        
C4        C        0.03125        0.703703        0.764932        0        
C4        C        0.09375        0.703703        0.764932        0        
C4        C        0.15625        0.703703        0.764932        0        
C4        C        0.21875        0.703703        0.764932        0        
C4        C        0.28125        0.703703        0.764932        0        
C4        C        0.34375        0.703703        0.764932        0        
C4        C        0.40625        0.703703        0.764932        0        
C4        C        0.46875        0.703703        0.764932        0        
C4        C        0.53125        0.703703        0.764932        0        
C4        C        0.59375        0.703703        0.764932        0        
C4        C        0.65625        0.703703        0.764932        0        
C4        C        0.71875        0.703703        0.764932        0        
C4        C        0.78125        0.703703        0.764932        0        
C4        C        0.84375        0.703703        0.764932        0        
C4        C        0.9062500000000001        0.703703        0.764932        0        
C4        C        0.9687500000000001        0.703703        0.764932        0        
C1        C        0.0        0.796297        0.764932        0        
C1        C        0.0625        0.796297        0.764932        0        
C1        C        0.125        0.796297        0.764932        0        
C1        C        0.1875        0.796297        0.764932        0        
C1        C        0.25        0.796297        0.764932        0        
C1        C        0.3125        0.796297        0.764932        0        
C1        C        0.375        0.796297        0.764932        0        
C1        C        0.4375        0.796297        0.764932        0        
C1        C        0.5        0.796297        0.764932        0        
C1        C        0.5625        0.796297        0.764932        0        
C1        C        0.625        0.796297        0.764932        0        
C1        C        0.6875        0.796297        0.764932        0        
C1        C        0.75        0.796297        0.764932        0        
C1        C        0.8125        0.796297        0.764932        0        
C1        C        0.875        0.796297        0.764932        0        
C1        C        0.9375        0.796297        0.764932        0        
C2        C        0.03125        0.851852        0.764932        0        
C2        C        0.09375        0.851852        0.764932        0        
C2        C        0.15625        0.851852        0.764932        0        
C2        C        0.21875        0.851852        0.764932        0        
C2        C        0.28125        0.851852        0.764932        0        
C2        C        0.34375        0.851852        0.764932        0        
C2        C        0.40625        0.851852        0.764932        0        
C2        C        0.46875        0.851852        0.764932        0        
C2        C        0.53125        0.851852        0.764932        0        
C2        C        0.59375        0.851852        0.764932        0        
C2        C        0.65625        0.851852        0.764932        0        
C2        C        0.71875        0.851852        0.764932        0        
C2        C        0.78125        0.851852        0.764932        0        
C2        C        0.84375        0.851852        0.764932        0        
C2        C        0.9062500000000001        0.851852        0.764932        0        
C2        C        0.9687500000000001        0.851852        0.764932        0        
C3        C        0.0        0.87037        0.764932        0        
C3        C        0.0625        0.87037        0.764932        0        
C3        C        0.125        0.87037        0.764932        0        
C3        C        0.1875        0.87037        0.764932        0        
C3        C        0.25        0.87037        0.764932        0        
C3        C        0.3125        0.87037        0.764932        0        
C3        C        0.375        0.87037        0.764932        0        
C3        C        0.4375        0.87037        0.764932        0        
C3        C        0.5        0.87037        0.764932        0        
C3        C        0.5625        0.87037        0.764932        0        
C3        C        0.625        0.87037        0.764932        0        
C3        C        0.6875        0.87037        0.764932        0        
C3        C        0.75        0.87037        0.764932        0        
C3        C        0.8125        0.87037        0.764932        0        
C3        C        0.875        0.87037        0.764932        0        
C3        C        0.9375        0.87037        0.764932        0        
C4        C        0.03125        0.814814        0.764932        0        
C4        C        0.09375        0.814814        0.764932        0        
C4        C        0.15625        0.814814        0.764932        0        
C4        C        0.21875        0.814814        0.764932        0        
C4        C        0.28125        0.814814        0.764932        0        
C4        C        0.34375        0.814814        0.764932        0        
C4        C        0.40625        0.814814        0.764932        0        
C4        C        0.46875        0.814814        0.764932        0        
C4        C        0.53125        0.814814        0.764932        0        
C4        C        0.59375        0.814814        0.764932        0        
C4        C        0.65625        0.814814        0.764932        0        
C4        C        0.71875        0.814814        0.764932        0        
C4        C        0.78125        0.814814        0.764932        0        
C4        C        0.84375        0.814814        0.764932        0        
C4        C        0.9062500000000001        0.814814        0.764932        0        
C4        C        0.9687500000000001        0.814814        0.764932        0        
C1        C        0.0        0.907408        0.764932        0        
C1        C        0.0625        0.907408        0.764932        0        
C1        C        0.125        0.907408        0.764932        0        
C1        C        0.1875        0.907408        0.764932        0        
C1        C        0.25        0.907408        0.764932        0        
C1        C        0.3125        0.907408        0.764932        0        
C1        C        0.375        0.907408        0.764932        0        
C1        C        0.4375        0.907408        0.764932        0        
C1        C        0.5        0.907408        0.764932        0        
C1        C        0.5625        0.907408        0.764932        0        
C1        C        0.625        0.907408        0.764932        0        
C1        C        0.6875        0.907408        0.764932        0        
C1        C        0.75        0.907408        0.764932        0        
C1        C        0.8125        0.907408        0.764932        0        
C1        C        0.875        0.907408        0.764932        0        
C1        C        0.9375        0.907408        0.764932        0        
C2        C        0.03125        0.962963        0.764932        0        
C2        C        0.09375        0.962963        0.764932        0        
C2        C        0.15625        0.962963        0.764932        0        
C2        C        0.21875        0.962963        0.764932        0        
C2        C        0.28125        0.962963        0.764932        0        
C2        C        0.34375        0.962963        0.764932        0        
C2        C        0.40625        0.962963        0.764932        0        
C2        C        0.46875        0.962963        0.764932        0        
C2        C        0.53125        0.962963        0.764932        0        
C2        C        0.59375        0.962963        0.764932        0        
C2        C        0.65625        0.962963        0.764932        0        
C2        C        0.71875        0.962963        0.764932        0        
C2        C        0.78125        0.962963        0.764932        0        
C2        C        0.84375        0.962963        0.764932        0        
C2        C        0.9062500000000001        0.962963        0.764932        0        
C2        C        0.9687500000000001        0.962963        0.764932        0        
C3        C        0.0        0.9814809999999999        0.764932        0        
C3        C        0.0625        0.9814809999999999        0.764932        0        
C3        C        0.125        0.9814809999999999        0.764932        0        
C3        C        0.1875        0.9814809999999999        0.764932        0        
C3        C        0.25        0.9814809999999999        0.764932        0        
C3        C        0.3125        0.9814809999999999        0.764932        0        
C3        C        0.375        0.9814809999999999        0.764932        0        
C3        C        0.4375        0.9814809999999999        0.764932        0        
C3        C        0.5        0.9814809999999999        0.764932        0        
C3        C        0.5625        0.9814809999999999        0.764932        0        
C3        C        0.625        0.9814809999999999        0.764932        0        
C3        C        0.6875        0.9814809999999999        0.764932        0        
C3        C        0.75        0.9814809999999999        0.764932        0        
C3        C        0.8125        0.9814809999999999        0.764932        0        
C3        C        0.875        0.9814809999999999        0.764932        0        
C3        C        0.9375        0.9814809999999999        0.764932        0        
C4        C        0.03125        0.925925        0.764932        0        
C4        C        0.09375        0.925925        0.764932        0        
C4        C        0.15625        0.925925        0.764932        0        
C4        C        0.21875        0.925925        0.764932        0        
C4        C        0.28125        0.925925        0.764932        0        
C4        C        0.34375        0.925925        0.764932        0        
C4        C        0.40625        0.925925        0.764932        0        
C4        C        0.46875        0.925925        0.764932        0        
C4        C        0.53125        0.925925        0.764932        0        
C4        C        0.59375        0.925925        0.764932        0        
C4        C        0.65625        0.925925        0.764932        0        
C4        C        0.71875        0.925925        0.764932        0        
C4        C        0.78125        0.925925        0.764932        0        
C4        C        0.84375        0.925925        0.764932        0        
C4        C        0.9062500000000001        0.925925        0.764932        0        
C4        C        0.9687500000000001        0.925925        0.764932        0        
C1        C        0.0        0.018519        0.816233        0        
C2        C        0.03125        0.074075        0.816233        0        
C3        C        0.0        0.092592        0.816233        0        
C4        C        0.03125        0.037037        0.816233        0        
C1        C        0.0        0.12963        0.816233        0        
C2        C        0.03125        0.185185        0.816233        0        
C3        C        0.0        0.203703        0.816233        0        
C4        C        0.03125        0.148148        0.816233        0        
C1        C        0.0        0.24074099999999998        0.816233        0        
C2        C        0.03125        0.296297        0.816233        0        
C3        C        0.0        0.314815        0.816233        0        
C4        C        0.03125        0.259259        0.816233        0        
C1        C        0.0        0.351852        0.816233        0        
C2        C        0.03125        0.407408        0.816233        0        
C3        C        0.0        0.42592500000000005        0.816233        0        
C4        C        0.03125        0.37037        0.816233        0        
C1        C        0.0        0.46296300000000007        0.816233        0        
C2        C        0.03125        0.518519        0.816233        0        
C3        C        0.0        0.537037        0.816233        0        
C4        C        0.03125        0.481481        0.816233        0        
C1        C        0.0        0.574075        0.816233        0        
C2        C        0.03125        0.62963        0.816233        0        
C3        C        0.0        0.648148        0.816233        0        
C4        C        0.03125        0.592592        0.816233        0        
C1        C        0.0625        0.018519        0.816233        0        
C2        C        0.09375        0.074075        0.816233        0        
C3        C        0.0625        0.092592        0.816233        0        
C4        C        0.09375        0.037037        0.816233        0        
C1        C        0.0625        0.12963        0.816233        0        
C2        C        0.09375        0.185185        0.816233        0        
C3        C        0.0625        0.203703        0.816233        0        
C4        C        0.09375        0.148148        0.816233        0        
C1        C        0.0625        0.24074099999999998        0.816233        0        
C2        C        0.09375        0.296297        0.816233        0        
C3        C        0.0625        0.314815        0.816233        0        
C4        C        0.09375        0.259259        0.816233        0        
C1        C        0.0625        0.351852        0.816233        0        
C2        C        0.09375        0.407408        0.816233        0        
C3        C        0.0625        0.42592500000000005        0.816233        0        
C4        C        0.09375        0.37037        0.816233        0        
C1        C        0.0625        0.46296300000000007        0.816233        0        
C2        C        0.09375        0.518519        0.816233        0        
C3        C        0.0625        0.537037        0.816233        0        
C4        C        0.09375        0.481481        0.816233        0        
C1        C        0.0625        0.574075        0.816233        0        
C2        C        0.09375        0.62963        0.816233        0        
C3        C        0.0625        0.648148        0.816233        0        
C4        C        0.09375        0.592592        0.816233        0        
C1        C        0.125        0.018519        0.816233        0        
C2        C        0.15625        0.074075        0.816233        0        
C3        C        0.125        0.092592        0.816233        0        
C4        C        0.15625        0.037037        0.816233        0        
C1        C        0.125        0.12963        0.816233        0        
C2        C        0.15625        0.185185        0.816233        0        
C3        C        0.125        0.203703        0.816233        0        
C4        C        0.15625        0.148148        0.816233        0        
C1        C        0.125        0.24074099999999998        0.816233        0        
C2        C        0.15625        0.296297        0.816233        0        
C3        C        0.125        0.314815        0.816233        0        
C4        C        0.15625        0.259259        0.816233        0        
C1        C        0.125        0.351852        0.816233        0        
C2        C        0.15625        0.407408        0.816233        0        
C3        C        0.125        0.42592500000000005        0.816233        0        
C4        C        0.15625        0.37037        0.816233        0        
C1        C        0.125        0.46296300000000007        0.816233        0        
C2        C        0.15625        0.518519        0.816233        0        
C3        C        0.125        0.537037        0.816233        0        
C4        C        0.15625        0.481481        0.816233        0        
C1        C        0.125        0.574075        0.816233        0        
C2        C        0.15625        0.62963        0.816233        0        
C3        C        0.125        0.648148        0.816233        0        
C4        C        0.15625        0.592592        0.816233        0        
C1        C        0.1875        0.018519        0.816233        0        
C2        C        0.21875        0.074075        0.816233        0        
C3        C        0.1875        0.092592        0.816233        0        
C4        C        0.21875        0.037037        0.816233        0        
C1        C        0.1875        0.12963        0.816233        0        
C2        C        0.21875        0.185185        0.816233        0        
C3        C        0.1875        0.203703        0.816233        0        
C4        C        0.21875        0.148148        0.816233        0        
C1        C        0.1875        0.24074099999999998        0.816233        0        
C2        C        0.21875        0.296297        0.816233        0        
C3        C        0.1875        0.314815        0.816233        0        
C4        C        0.21875        0.259259        0.816233        0        
C1        C        0.1875        0.351852        0.816233        0        
C2        C        0.21875        0.407408        0.816233        0        
C3        C        0.1875        0.42592500000000005        0.816233        0        
C4        C        0.21875        0.37037        0.816233        0        
C1        C        0.1875        0.46296300000000007        0.816233        0        
C2        C        0.21875        0.518519        0.816233        0        
C3        C        0.1875        0.537037        0.816233        0        
C4        C        0.21875        0.481481        0.816233        0        
C1        C        0.1875        0.574075        0.816233        0        
C2        C        0.21875        0.62963        0.816233        0        
C3        C        0.1875        0.648148        0.816233        0        
C4        C        0.21875        0.592592        0.816233        0        
C1        C        0.25        0.018519        0.816233        0        
C2        C        0.28125        0.074075        0.816233        0        
C3        C        0.25        0.092592        0.816233        0        
C4        C        0.28125        0.037037        0.816233        0        
C1        C        0.25        0.12963        0.816233        0        
C2        C        0.28125        0.185185        0.816233        0        
C3        C        0.25        0.203703        0.816233        0        
C4        C        0.28125        0.148148        0.816233        0        
C1        C        0.25        0.24074099999999998        0.816233        0        
C2        C        0.28125        0.296297        0.816233        0        
C3        C        0.25        0.314815        0.816233        0        
C4        C        0.28125        0.259259        0.816233        0        
C1        C        0.25        0.351852        0.816233        0        
C2        C        0.28125        0.407408        0.816233        0        
C3        C        0.25        0.42592500000000005        0.816233        0        
C4        C        0.28125        0.37037        0.816233        0        
C1        C        0.25        0.46296300000000007        0.816233        0        
C2        C        0.28125        0.518519        0.816233        0        
C3        C        0.25        0.537037        0.816233        0        
C4        C        0.28125        0.481481        0.816233        0        
C1        C        0.25        0.574075        0.816233        0        
C2        C        0.28125        0.62963        0.816233        0        
C3        C        0.25        0.648148        0.816233        0        
C4        C        0.28125        0.592592        0.816233        0        
C1        C        0.3125        0.018519        0.816233        0        
C2        C        0.34375        0.074075        0.816233        0        
C3        C        0.3125        0.092592        0.816233        0        
C4        C        0.34375        0.037037        0.816233        0        
C1        C        0.3125        0.12963        0.816233        0        
C2        C        0.34375        0.185185        0.816233        0        
C3        C        0.3125        0.203703        0.816233        0        
C4        C        0.34375        0.148148        0.816233        0        
C1        C        0.3125        0.24074099999999998        0.816233        0        
C2        C        0.34375        0.296297        0.816233        0        
C3        C        0.3125        0.314815        0.816233        0        
C4        C        0.34375        0.259259        0.816233        0        
C1        C        0.3125        0.351852        0.816233        0        
C2        C        0.34375        0.407408        0.816233        0        
C3        C        0.3125        0.42592500000000005        0.816233        0        
C4        C        0.34375        0.37037        0.816233        0        
C1        C        0.3125        0.46296300000000007        0.816233        0        
C2        C        0.34375        0.518519        0.816233        0        
C3        C        0.3125        0.537037        0.816233        0        
C4        C        0.34375        0.481481        0.816233        0        
C1        C        0.3125        0.574075        0.816233        0        
C2        C        0.34375        0.62963        0.816233        0        
C3        C        0.3125        0.648148        0.816233        0        
C4        C        0.34375        0.592592        0.816233        0        
C1        C        0.375        0.018519        0.816233        0        
C2        C        0.40625        0.074075        0.816233        0        
C3        C        0.375        0.092592        0.816233        0        
C4        C        0.40625        0.037037        0.816233        0        
C1        C        0.375        0.12963        0.816233        0        
C2        C        0.40625        0.185185        0.816233        0        
C3        C        0.375        0.203703        0.816233        0        
C4        C        0.40625        0.148148        0.816233        0        
C1        C        0.375        0.24074099999999998        0.816233        0        
C2        C        0.40625        0.296297        0.816233        0        
C3        C        0.375        0.314815        0.816233        0        
C4        C        0.40625        0.259259        0.816233        0        
C1        C        0.375        0.351852        0.816233        0        
C2        C        0.40625        0.407408        0.816233        0        
C3        C        0.375        0.42592500000000005        0.816233        0        
C4        C        0.40625        0.37037        0.816233        0        
C1        C        0.375        0.46296300000000007        0.816233        0        
C2        C        0.40625        0.518519        0.816233        0        
C3        C        0.375        0.537037        0.816233        0        
C4        C        0.40625        0.481481        0.816233        0        
C1        C        0.375        0.574075        0.816233        0        
C2        C        0.40625        0.62963        0.816233        0        
C3        C        0.375        0.648148        0.816233        0        
C4        C        0.40625        0.592592        0.816233        0        
C1        C        0.4375        0.018519        0.816233        0        
C2        C        0.46875        0.074075        0.816233        0        
C3        C        0.4375        0.092592        0.816233        0        
C4        C        0.46875        0.037037        0.816233        0        
C1        C        0.4375        0.12963        0.816233        0        
C2        C        0.46875        0.185185        0.816233        0        
C3        C        0.4375        0.203703        0.816233        0        
C4        C        0.46875        0.148148        0.816233        0        
C1        C        0.4375        0.24074099999999998        0.816233        0        
C2        C        0.46875        0.296297        0.816233        0        
C3        C        0.4375        0.314815        0.816233        0        
C4        C        0.46875        0.259259        0.816233        0        
C1        C        0.4375        0.351852        0.816233        0        
C2        C        0.46875        0.407408        0.816233        0        
C3        C        0.4375        0.42592500000000005        0.816233        0        
C4        C        0.46875        0.37037        0.816233        0        
C1        C        0.4375        0.46296300000000007        0.816233        0        
C2        C        0.46875        0.518519        0.816233        0        
C3        C        0.4375        0.537037        0.816233        0        
C4        C        0.46875        0.481481        0.816233        0        
C1        C        0.4375        0.574075        0.816233        0        
C2        C        0.46875        0.62963        0.816233        0        
C3        C        0.4375        0.648148        0.816233        0        
C4        C        0.46875        0.592592        0.816233        0        
C1        C        0.5        0.018519        0.816233        0        
C2        C        0.53125        0.074075        0.816233        0        
C3        C        0.5        0.092592        0.816233        0        
C4        C        0.53125        0.037037        0.816233        0        
C1        C        0.5        0.12963        0.816233        0        
C2        C        0.53125        0.185185        0.816233        0        
C3        C        0.5        0.203703        0.816233        0        
C4        C        0.53125        0.148148        0.816233        0        
C1        C        0.5        0.24074099999999998        0.816233        0        
C2        C        0.53125        0.296297        0.816233        0        
C3        C        0.5        0.314815        0.816233        0        
C4        C        0.53125        0.259259        0.816233        0        
C1        C        0.5        0.351852        0.816233        0        
C2        C        0.53125        0.407408        0.816233        0        
C3        C        0.5        0.42592500000000005        0.816233        0        
C4        C        0.53125        0.37037        0.816233        0        
C1        C        0.5        0.46296300000000007        0.816233        0        
C2        C        0.53125        0.518519        0.816233        0        
C3        C        0.5        0.537037        0.816233        0        
C4        C        0.53125        0.481481        0.816233        0        
C1        C        0.5        0.574075        0.816233        0        
C2        C        0.53125        0.62963        0.816233        0        
C3        C        0.5        0.648148        0.816233        0        
C4        C        0.53125        0.592592        0.816233        0        
C1        C        0.5625        0.018519        0.816233        0        
C2        C        0.59375        0.074075        0.816233        0        
C3        C        0.5625        0.092592        0.816233        0        
C4        C        0.59375        0.037037        0.816233        0        
C1        C        0.5625        0.12963        0.816233        0        
C2        C        0.59375        0.185185        0.816233        0        
C3        C        0.5625        0.203703        0.816233        0        
C4        C        0.59375        0.148148        0.816233        0        
C1        C        0.5625        0.24074099999999998        0.816233        0        
C2        C        0.59375        0.296297        0.816233        0        
C3        C        0.5625        0.314815        0.816233        0        
C4        C        0.59375        0.259259        0.816233        0        
C1        C        0.5625        0.351852        0.816233        0        
C2        C        0.59375        0.407408        0.816233        0        
C3        C        0.5625        0.42592500000000005        0.816233        0        
C4        C        0.59375        0.37037        0.816233        0        
C1        C        0.5625        0.46296300000000007        0.816233        0        
C2        C        0.59375        0.518519        0.816233        0        
C3        C        0.5625        0.537037        0.816233        0        
C4        C        0.59375        0.481481        0.816233        0        
C1        C        0.5625        0.574075        0.816233        0        
C2        C        0.59375        0.62963        0.816233        0        
C3        C        0.5625        0.648148        0.816233        0        
C4        C        0.59375        0.592592        0.816233        0        
C1        C        0.625        0.018519        0.816233        0        
C2        C        0.65625        0.074075        0.816233        0        
C3        C        0.625        0.092592        0.816233        0        
C4        C        0.65625        0.037037        0.816233        0        
C1        C        0.625        0.12963        0.816233        0        
C2        C        0.65625        0.185185        0.816233        0        
C3        C        0.625        0.203703        0.816233        0        
C4        C        0.65625        0.148148        0.816233        0        
C1        C        0.625        0.24074099999999998        0.816233        0        
C2        C        0.65625        0.296297        0.816233        0        
C3        C        0.625        0.314815        0.816233        0        
C4        C        0.65625        0.259259        0.816233        0        
C1        C        0.625        0.351852        0.816233        0        
C2        C        0.65625        0.407408        0.816233        0        
C3        C        0.625        0.42592500000000005        0.816233        0        
C4        C        0.65625        0.37037        0.816233        0        
C1        C        0.625        0.46296300000000007        0.816233        0        
C2        C        0.65625        0.518519        0.816233        0        
C3        C        0.625        0.537037        0.816233        0        
C4        C        0.65625        0.481481        0.816233        0        
C1        C        0.625        0.574075        0.816233        0        
C2        C        0.65625        0.62963        0.816233        0        
C3        C        0.625        0.648148        0.816233        0        
C4        C        0.65625        0.592592        0.816233        0        
C1        C        0.6875        0.018519        0.816233        0        
C2        C        0.71875        0.074075        0.816233        0        
C3        C        0.6875        0.092592        0.816233        0        
C4        C        0.71875        0.037037        0.816233        0        
C1        C        0.6875        0.12963        0.816233        0        
C2        C        0.71875        0.185185        0.816233        0        
C3        C        0.6875        0.203703        0.816233        0        
C4        C        0.71875        0.148148        0.816233        0        
C1        C        0.6875        0.24074099999999998        0.816233        0        
C2        C        0.71875        0.296297        0.816233        0        
C3        C        0.6875        0.314815        0.816233        0        
C4        C        0.71875        0.259259        0.816233        0        
C1        C        0.6875        0.351852        0.816233        0        
C2        C        0.71875        0.407408        0.816233        0        
C3        C        0.6875        0.42592500000000005        0.816233        0        
C4        C        0.71875        0.37037        0.816233        0        
C1        C        0.6875        0.46296300000000007        0.816233        0        
C2        C        0.71875        0.518519        0.816233        0        
C3        C        0.6875        0.537037        0.816233        0        
C4        C        0.71875        0.481481        0.816233        0        
C1        C        0.6875        0.574075        0.816233        0        
C2        C        0.71875        0.62963        0.816233        0        
C3        C        0.6875        0.648148        0.816233        0        
C4        C        0.71875        0.592592        0.816233        0        
C1        C        0.75        0.018519        0.816233        0        
C2        C        0.78125        0.074075        0.816233        0        
C3        C        0.75        0.092592        0.816233        0        
C4        C        0.78125        0.037037        0.816233        0        
C1        C        0.75        0.12963        0.816233        0        
C2        C        0.78125        0.185185        0.816233        0        
C3        C        0.75        0.203703        0.816233        0        
C4        C        0.78125        0.148148        0.816233        0        
C1        C        0.75        0.24074099999999998        0.816233        0        
C2        C        0.78125        0.296297        0.816233        0        
C3        C        0.75        0.314815        0.816233        0        
C4        C        0.78125        0.259259        0.816233        0        
C1        C        0.75        0.351852        0.816233        0        
C2        C        0.78125        0.407408        0.816233        0        
C3        C        0.75        0.42592500000000005        0.816233        0        
C4        C        0.78125        0.37037        0.816233        0        
C1        C        0.75        0.46296300000000007        0.816233        0        
C2        C        0.78125        0.518519        0.816233        0        
C3        C        0.75        0.537037        0.816233        0        
C4        C        0.78125        0.481481        0.816233        0        
C1        C        0.75        0.574075        0.816233        0        
C2        C        0.78125        0.62963        0.816233        0        
C3        C        0.75        0.648148        0.816233        0        
C4        C        0.78125        0.592592        0.816233        0        
C1        C        0.8125        0.018519        0.816233        0        
C2        C        0.84375        0.074075        0.816233        0        
C3        C        0.8125        0.092592        0.816233        0        
C4        C        0.84375        0.037037        0.816233        0        
C1        C        0.8125        0.12963        0.816233        0        
C2        C        0.84375        0.185185        0.816233        0        
C3        C        0.8125        0.203703        0.816233        0        
C4        C        0.84375        0.148148        0.816233        0        
C1        C        0.8125        0.24074099999999998        0.816233        0        
C2        C        0.84375        0.296297        0.816233        0        
C3        C        0.8125        0.314815        0.816233        0        
C4        C        0.84375        0.259259        0.816233        0        
C1        C        0.8125        0.351852        0.816233        0        
C2        C        0.84375        0.407408        0.816233        0        
C3        C        0.8125        0.42592500000000005        0.816233        0        
C4        C        0.84375        0.37037        0.816233        0        
C1        C        0.8125        0.46296300000000007        0.816233        0        
C2        C        0.84375        0.518519        0.816233        0        
C3        C        0.8125        0.537037        0.816233        0        
C4        C        0.84375        0.481481        0.816233        0        
C1        C        0.8125        0.574075        0.816233        0        
C2        C        0.84375        0.62963        0.816233        0        
C3        C        0.8125        0.648148        0.816233        0        
C4        C        0.84375        0.592592        0.816233        0        
C1        C        0.875        0.018519        0.816233        0        
C2        C        0.9062500000000001        0.074075        0.816233        0        
C3        C        0.875        0.092592        0.816233        0        
C4        C        0.9062500000000001        0.037037        0.816233        0        
C1        C        0.875        0.12963        0.816233        0        
C2        C        0.9062500000000001        0.185185        0.816233        0        
C3        C        0.875        0.203703        0.816233        0        
C4        C        0.9062500000000001        0.148148        0.816233        0        
C1        C        0.875        0.24074099999999998        0.816233        0        
C2        C        0.9062500000000001        0.296297        0.816233        0        
C3        C        0.875        0.314815        0.816233        0        
C4        C        0.9062500000000001        0.259259        0.816233        0        
C1        C        0.875        0.351852        0.816233        0        
C2        C        0.9062500000000001        0.407408        0.816233        0        
C3        C        0.875        0.42592500000000005        0.816233        0        
C4        C        0.9062500000000001        0.37037        0.816233        0        
C1        C        0.875        0.46296300000000007        0.816233        0        
C2        C        0.9062500000000001        0.518519        0.816233        0        
C3        C        0.875        0.537037        0.816233        0        
C4        C        0.9062500000000001        0.481481        0.816233        0        
C1        C        0.875        0.574075        0.816233        0        
C2        C        0.9062500000000001        0.62963        0.816233        0        
C3        C        0.875        0.648148        0.816233        0        
C4        C        0.9062500000000001        0.592592        0.816233        0        
C1        C        0.9375        0.018519        0.816233        0        
C2        C        0.9687500000000001        0.074075        0.816233        0        
C3        C        0.9375        0.092592        0.816233        0        
C4        C        0.9687500000000001        0.037037        0.816233        0        
C1        C        0.9375        0.12963        0.816233        0        
C2        C        0.9687500000000001        0.185185        0.816233        0        
C3        C        0.9375        0.203703        0.816233        0        
C4        C        0.9687500000000001        0.148148        0.816233        0        
C1        C        0.9375        0.24074099999999998        0.816233        0        
C2        C        0.9687500000000001        0.296297        0.816233        0        
C3        C        0.9375        0.314815        0.816233        0        
C4        C        0.9687500000000001        0.259259        0.816233        0        
C1        C        0.9375        0.351852        0.816233        0        
C2        C        0.9687500000000001        0.407408        0.816233        0        
C3        C        0.9375        0.42592500000000005        0.816233        0        
C4        C        0.9687500000000001        0.37037        0.816233        0        
C1        C        0.9375        0.46296300000000007        0.816233        0        
C2        C        0.9687500000000001        0.518519        0.816233        0        
C3        C        0.9375        0.537037        0.816233        0        
C4        C        0.9687500000000001        0.481481        0.816233        0        
C1        C        0.9375        0.574075        0.816233        0        
C2        C        0.9687500000000001        0.62963        0.816233        0        
C3        C        0.9375        0.648148        0.816233        0        
C4        C        0.9687500000000001        0.592592        0.816233        0        
C1        C        0.0        0.685186        0.816233        0        
C1        C        0.0625        0.685186        0.816233        0        
C1        C        0.125        0.685186        0.816233        0        
C1        C        0.1875        0.685186        0.816233        0        
C1        C        0.25        0.685186        0.816233        0        
C1        C        0.3125        0.685186        0.816233        0        
C1        C        0.375        0.685186        0.816233        0        
C1        C        0.4375        0.685186        0.816233        0        
C1        C        0.5        0.685186        0.816233        0        
C1        C        0.5625        0.685186        0.816233        0        
C1        C        0.625        0.685186        0.816233        0        
C1        C        0.6875        0.685186        0.816233        0        
C1        C        0.75        0.685186        0.816233        0        
C1        C        0.8125        0.685186        0.816233        0        
C1        C        0.875        0.685186        0.816233        0        
C1        C        0.9375        0.685186        0.816233        0        
C2        C        0.03125        0.740741        0.816233        0        
C2        C        0.09375        0.740741        0.816233        0        
C2        C        0.15625        0.740741        0.816233        0        
C2        C        0.21875        0.740741        0.816233        0        
C2        C        0.28125        0.740741        0.816233        0        
C2        C        0.34375        0.740741        0.816233        0        
C2        C        0.40625        0.740741        0.816233        0        
C2        C        0.46875        0.740741        0.816233        0        
C2        C        0.53125        0.740741        0.816233        0        
C2        C        0.59375        0.740741        0.816233        0        
C2        C        0.65625        0.740741        0.816233        0        
C2        C        0.71875        0.740741        0.816233        0        
C2        C        0.78125        0.740741        0.816233        0        
C2        C        0.84375        0.740741        0.816233        0        
C2        C        0.9062500000000001        0.740741        0.816233        0        
C2        C        0.9687500000000001        0.740741        0.816233        0        
C3        C        0.0        0.759259        0.816233        0        
C3        C        0.0625        0.759259        0.816233        0        
C3        C        0.125        0.759259        0.816233        0        
C3        C        0.1875        0.759259        0.816233        0        
C3        C        0.25        0.759259        0.816233        0        
C3        C        0.3125        0.759259        0.816233        0        
C3        C        0.375        0.759259        0.816233        0        
C3        C        0.4375        0.759259        0.816233        0        
C3        C        0.5        0.759259        0.816233        0        
C3        C        0.5625        0.759259        0.816233        0        
C3        C        0.625        0.759259        0.816233        0        
C3        C        0.6875        0.759259        0.816233        0        
C3        C        0.75        0.759259        0.816233        0        
C3        C        0.8125        0.759259        0.816233        0        
C3        C        0.875        0.759259        0.816233        0        
C3        C        0.9375        0.759259        0.816233        0        
C4        C        0.03125        0.703703        0.816233        0        
C4        C        0.09375        0.703703        0.816233        0        
C4        C        0.15625        0.703703        0.816233        0        
C4        C        0.21875        0.703703        0.816233        0        
C4        C        0.28125        0.703703        0.816233        0        
C4        C        0.34375        0.703703        0.816233        0        
C4        C        0.40625        0.703703        0.816233        0        
C4        C        0.46875        0.703703        0.816233        0        
C4        C        0.53125        0.703703        0.816233        0        
C4        C        0.59375        0.703703        0.816233        0        
C4        C        0.65625        0.703703        0.816233        0        
C4        C        0.71875        0.703703        0.816233        0        
C4        C        0.78125        0.703703        0.816233        0        
C4        C        0.84375        0.703703        0.816233        0        
C4        C        0.9062500000000001        0.703703        0.816233        0        
C4        C        0.9687500000000001        0.703703        0.816233        0        
C1        C        0.0        0.796297        0.816233        0        
C1        C        0.0625        0.796297        0.816233        0        
C1        C        0.125        0.796297        0.816233        0        
C1        C        0.1875        0.796297        0.816233        0        
C1        C        0.25        0.796297        0.816233        0        
C1        C        0.3125        0.796297        0.816233        0        
C1        C        0.375        0.796297        0.816233        0        
C1        C        0.4375        0.796297        0.816233        0        
C1        C        0.5        0.796297        0.816233        0        
C1        C        0.5625        0.796297        0.816233        0        
C1        C        0.625        0.796297        0.816233        0        
C1        C        0.6875        0.796297        0.816233        0        
C1        C        0.75        0.796297        0.816233        0        
C1        C        0.8125        0.796297        0.816233        0        
C1        C        0.875        0.796297        0.816233        0        
C1        C        0.9375        0.796297        0.816233        0        
C2        C        0.03125        0.851852        0.816233        0        
C2        C        0.09375        0.851852        0.816233        0        
C2        C        0.15625        0.851852        0.816233        0        
C2        C        0.21875        0.851852        0.816233        0        
C2        C        0.28125        0.851852        0.816233        0        
C2        C        0.34375        0.851852        0.816233        0        
C2        C        0.40625        0.851852        0.816233        0        
C2        C        0.46875        0.851852        0.816233        0        
C2        C        0.53125        0.851852        0.816233        0        
C2        C        0.59375        0.851852        0.816233        0        
C2        C        0.65625        0.851852        0.816233        0        
C2        C        0.71875        0.851852        0.816233        0        
C2        C        0.78125        0.851852        0.816233        0        
C2        C        0.84375        0.851852        0.816233        0        
C2        C        0.9062500000000001        0.851852        0.816233        0        
C2        C        0.9687500000000001        0.851852        0.816233        0        
C3        C        0.0        0.87037        0.816233        0        
C3        C        0.0625        0.87037        0.816233        0        
C3        C        0.125        0.87037        0.816233        0        
C3        C        0.1875        0.87037        0.816233        0        
C3        C        0.25        0.87037        0.816233        0        
C3        C        0.3125        0.87037        0.816233        0        
C3        C        0.375        0.87037        0.816233        0        
C3        C        0.4375        0.87037        0.816233        0        
C3        C        0.5        0.87037        0.816233        0        
C3        C        0.5625        0.87037        0.816233        0        
C3        C        0.625        0.87037        0.816233        0        
C3        C        0.6875        0.87037        0.816233        0        
C3        C        0.75        0.87037        0.816233        0        
C3        C        0.8125        0.87037        0.816233        0        
C3        C        0.875        0.87037        0.816233        0        
C3        C        0.9375        0.87037        0.816233        0        
C4        C        0.03125        0.814814        0.816233        0        
C4        C        0.09375        0.814814        0.816233        0        
C4        C        0.15625        0.814814        0.816233        0        
C4        C        0.21875        0.814814        0.816233        0        
C4        C        0.28125        0.814814        0.816233        0        
C4        C        0.34375        0.814814        0.816233        0        
C4        C        0.40625        0.814814        0.816233        0        
C4        C        0.46875        0.814814        0.816233        0        
C4        C        0.53125        0.814814        0.816233        0        
C4        C        0.59375        0.814814        0.816233        0        
C4        C        0.65625        0.814814        0.816233        0        
C4        C        0.71875        0.814814        0.816233        0        
C4        C        0.78125        0.814814        0.816233        0        
C4        C        0.84375        0.814814        0.816233        0        
C4        C        0.9062500000000001        0.814814        0.816233        0        
C4        C        0.9687500000000001        0.814814        0.816233        0        
C1        C        0.0        0.907408        0.816233        0        
C1        C        0.0625        0.907408        0.816233        0        
C1        C        0.125        0.907408        0.816233        0        
C1        C        0.1875        0.907408        0.816233        0        
C1        C        0.25        0.907408        0.816233        0        
C1        C        0.3125        0.907408        0.816233        0        
C1        C        0.375        0.907408        0.816233        0        
C1        C        0.4375        0.907408        0.816233        0        
C1        C        0.5        0.907408        0.816233        0        
C1        C        0.5625        0.907408        0.816233        0        
C1        C        0.625        0.907408        0.816233        0        
C1        C        0.6875        0.907408        0.816233        0        
C1        C        0.75        0.907408        0.816233        0        
C1        C        0.8125        0.907408        0.816233        0        
C1        C        0.875        0.907408        0.816233        0        
C1        C        0.9375        0.907408        0.816233        0        
C2        C        0.03125        0.962963        0.816233        0        
C2        C        0.09375        0.962963        0.816233        0        
C2        C        0.15625        0.962963        0.816233        0        
C2        C        0.21875        0.962963        0.816233        0        
C2        C        0.28125        0.962963        0.816233        0        
C2        C        0.34375        0.962963        0.816233        0        
C2        C        0.40625        0.962963        0.816233        0        
C2        C        0.46875        0.962963        0.816233        0        
C2        C        0.53125        0.962963        0.816233        0        
C2        C        0.59375        0.962963        0.816233        0        
C2        C        0.65625        0.962963        0.816233        0        
C2        C        0.71875        0.962963        0.816233        0        
C2        C        0.78125        0.962963        0.816233        0        
C2        C        0.84375        0.962963        0.816233        0        
C2        C        0.9062500000000001        0.962963        0.816233        0        
C2        C        0.9687500000000001        0.962963        0.816233        0        
C3        C        0.0        0.9814809999999999        0.816233        0        
C3        C        0.0625        0.9814809999999999        0.816233        0        
C3        C        0.125        0.9814809999999999        0.816233        0        
C3        C        0.1875        0.9814809999999999        0.816233        0        
C3        C        0.25        0.9814809999999999        0.816233        0        
C3        C        0.3125        0.9814809999999999        0.816233        0        
C3        C        0.375        0.9814809999999999        0.816233        0        
C3        C        0.4375        0.9814809999999999        0.816233        0        
C3        C        0.5        0.9814809999999999        0.816233        0        
C3        C        0.5625        0.9814809999999999        0.816233        0        
C3        C        0.625        0.9814809999999999        0.816233        0        
C3        C        0.6875        0.9814809999999999        0.816233        0        
C3        C        0.75        0.9814809999999999        0.816233        0        
C3        C        0.8125        0.9814809999999999        0.816233        0        
C3        C        0.875        0.9814809999999999        0.816233        0        
C3        C        0.9375        0.9814809999999999        0.816233        0        
C4        C        0.03125        0.925925        0.816233        0        
C4        C        0.09375        0.925925        0.816233        0        
C4        C        0.15625        0.925925        0.816233        0        
C4        C        0.21875        0.925925        0.816233        0        
C4        C        0.28125        0.925925        0.816233        0        
C4        C        0.34375        0.925925        0.816233        0        
C4        C        0.40625        0.925925        0.816233        0        
C4        C        0.46875        0.925925        0.816233        0        
C4        C        0.53125        0.925925        0.816233        0        
C4        C        0.59375        0.925925        0.816233        0        
C4        C        0.65625        0.925925        0.816233        0        
C4        C        0.71875        0.925925        0.816233        0        
C4        C        0.78125        0.925925        0.816233        0        
C4        C        0.84375        0.925925        0.816233        0        
C4        C        0.9062500000000001        0.925925        0.816233        0        
C4        C        0.9687500000000001        0.925925        0.816233        0        
O_OH        O        0.0        0.018519        0.30831546707503826        -0.64        
O_OH        O        0.0        0.12963        0.30831546707503826        -0.64        
O_OH        O        0.0        0.24074099999999998        0.30831546707503826        -0.64        
O_OH        O        0.0        0.351852        0.30831546707503826        -0.64        
O_OH        O        0.0        0.46296300000000007        0.30831546707503826        -0.64        
O_OH        O        0.0        0.574075        0.30831546707503826        -0.64        
O_OH        O        0.125        0.018519        0.30831546707503826        -0.64        
O_OH        O        0.125        0.12963        0.30831546707503826        -0.64        
O_OH        O        0.125        0.24074099999999998        0.30831546707503826        -0.64        
O_OH        O        0.125        0.351852        0.30831546707503826        -0.64        
O_OH        O        0.125        0.46296300000000007        0.30831546707503826        -0.64        
O_OH        O        0.125        0.574075        0.30831546707503826        -0.64        
O_OH        O        0.25        0.018519        0.30831546707503826        -0.64        
O_OH        O        0.25        0.12963        0.30831546707503826        -0.64        
O_OH        O        0.25        0.24074099999999998        0.30831546707503826        -0.64        
O_OH        O        0.25        0.351852        0.30831546707503826        -0.64        
O_OH        O        0.25        0.46296300000000007        0.30831546707503826        -0.64        
O_OH        O        0.25        0.574075        0.30831546707503826        -0.64        
O_OH        O        0.375        0.018519        0.30831546707503826        -0.64        
O_OH        O        0.375        0.12963        0.30831546707503826        -0.64        
O_OH        O        0.375        0.24074099999999998        0.30831546707503826        -0.64        
O_OH        O        0.375        0.351852        0.30831546707503826        -0.64        
O_OH        O        0.375        0.46296300000000007        0.30831546707503826        -0.64        
O_OH        O        0.375        0.574075        0.30831546707503826        -0.64        
O_OH        O        0.5        0.018519        0.30831546707503826        -0.64        
O_OH        O        0.5        0.12963        0.30831546707503826        -0.64        
O_OH        O        0.5        0.24074099999999998        0.30831546707503826        -0.64        
O_OH        O        0.5        0.351852        0.30831546707503826        -0.64        
O_OH        O        0.5        0.46296300000000007        0.30831546707503826        -0.64        
O_OH        O        0.5        0.574075        0.30831546707503826        -0.64        
O_OH        O        0.625        0.018519        0.30831546707503826        -0.64        
O_OH        O        0.625        0.12963        0.30831546707503826        -0.64        
O_OH        O        0.625        0.24074099999999998        0.30831546707503826        -0.64        
O_OH        O        0.625        0.351852        0.30831546707503826        -0.64        
O_OH        O        0.625        0.46296300000000007        0.30831546707503826        -0.64        
O_OH        O        0.625        0.574075        0.30831546707503826        -0.64        
O_OH        O        0.75        0.018519        0.30831546707503826        -0.64        
O_OH        O        0.75        0.12963        0.30831546707503826        -0.64        
O_OH        O        0.75        0.24074099999999998        0.30831546707503826        -0.64        
O_OH        O        0.75        0.351852        0.30831546707503826        -0.64        
O_OH        O        0.75        0.46296300000000007        0.30831546707503826        -0.64        
O_OH        O        0.75        0.574075        0.30831546707503826        -0.64        
O_OH        O        0.875        0.018519        0.30831546707503826        -0.64        
O_OH        O        0.875        0.12963        0.30831546707503826        -0.64        
O_OH        O        0.875        0.24074099999999998        0.30831546707503826        -0.64        
O_OH        O        0.875        0.351852        0.30831546707503826        -0.64        
O_OH        O        0.875        0.46296300000000007        0.30831546707503826        -0.64        
O_OH        O        0.875        0.574075        0.30831546707503826        -0.64        
O_OH        O        0.0        0.685186        0.30831546707503826        -0.64        
O_OH        O        0.125        0.685186        0.30831546707503826        -0.64        
O_OH        O        0.25        0.685186        0.30831546707503826        -0.64        
O_OH        O        0.375        0.685186        0.30831546707503826        -0.64        
O_OH        O        0.5        0.685186        0.30831546707503826        -0.64        
O_OH        O        0.625        0.685186        0.30831546707503826        -0.64        
O_OH        O        0.75        0.685186        0.30831546707503826        -0.64        
O_OH        O        0.875        0.685186        0.30831546707503826        -0.64        
O_OH        O        0.0        0.796297        0.30831546707503826        -0.64        
O_OH        O        0.125        0.796297        0.30831546707503826        -0.64        
O_OH        O        0.25        0.796297        0.30831546707503826        -0.64        
O_OH        O        0.375        0.796297        0.30831546707503826        -0.64        
O_OH        O        0.5        0.796297        0.30831546707503826        -0.64        
O_OH        O        0.625        0.796297        0.30831546707503826        -0.64        
O_OH        O        0.75        0.796297        0.30831546707503826        -0.64        
O_OH        O        0.875        0.796297        0.30831546707503826        -0.64        
O_OH        O        0.0        0.907408        0.30831546707503826        -0.64        
O_OH        O        0.125        0.907408        0.30831546707503826        -0.64        
O_OH        O        0.25        0.907408        0.30831546707503826        -0.64        
O_OH        O        0.375        0.907408        0.30831546707503826        -0.64        
O_OH        O        0.5        0.907408        0.30831546707503826        -0.64        
O_OH        O        0.625        0.907408        0.30831546707503826        -0.64        
O_OH        O        0.75        0.907408        0.30831546707503826        -0.64        
O_OH        O        0.875        0.907408        0.30831546707503826        -0.64        
O_OH        O        0.0        0.018519        0.6916845329249618        -0.64        
O_OH        O        0.0        0.12963        0.6916845329249618        -0.64        
O_OH        O        0.0        0.24074099999999998        0.6916845329249618        -0.64        
O_OH        O        0.0        0.351852        0.6916845329249618        -0.64        
O_OH        O        0.0        0.46296300000000007        0.6916845329249618        -0.64        
O_OH        O        0.0        0.574075        0.6916845329249618        -0.64        
O_OH        O        0.125        0.018519        0.6916845329249618        -0.64        
O_OH        O        0.125        0.12963        0.6916845329249618        -0.64        
O_OH        O        0.125        0.24074099999999998        0.6916845329249618        -0.64        
O_OH        O        0.125        0.351852        0.6916845329249618        -0.64        
O_OH        O        0.125        0.46296300000000007        0.6916845329249618        -0.64        
O_OH        O        0.125        0.574075        0.6916845329249618        -0.64        
O_OH        O        0.25        0.018519        0.6916845329249618        -0.64        
O_OH        O        0.25        0.12963        0.6916845329249618        -0.64        
O_OH        O        0.25        0.24074099999999998        0.6916845329249618        -0.64        
O_OH        O        0.25        0.351852        0.6916845329249618        -0.64        
O_OH        O        0.25        0.46296300000000007        0.6916845329249618        -0.64        
O_OH        O        0.25        0.574075        0.6916845329249618        -0.64        
O_OH        O        0.375        0.018519        0.6916845329249618        -0.64        
O_OH        O        0.375        0.12963        0.6916845329249618        -0.64        
O_OH        O        0.375        0.24074099999999998        0.6916845329249618        -0.64        
O_OH        O        0.375        0.351852        0.6916845329249618        -0.64        
O_OH        O        0.375        0.46296300000000007        0.6916845329249618        -0.64        
O_OH        O        0.375        0.574075        0.6916845329249618        -0.64        
O_OH        O        0.5        0.018519        0.6916845329249618        -0.64        
O_OH        O        0.5        0.12963        0.6916845329249618        -0.64        
O_OH        O        0.5        0.24074099999999998        0.6916845329249618        -0.64        
O_OH        O        0.5        0.351852        0.6916845329249618        -0.64        
O_OH        O        0.5        0.46296300000000007        0.6916845329249618        -0.64        
O_OH        O        0.5        0.574075        0.6916845329249618        -0.64        
O_OH        O        0.625        0.018519        0.6916845329249618        -0.64        
O_OH        O        0.625        0.12963        0.6916845329249618        -0.64        
O_OH        O        0.625        0.24074099999999998        0.6916845329249618        -0.64        
O_OH        O        0.625        0.351852        0.6916845329249618        -0.64        
O_OH        O        0.625        0.46296300000000007        0.6916845329249618        -0.64        
O_OH        O        0.625        0.574075        0.6916845329249618        -0.64        
O_OH        O        0.75        0.018519        0.6916845329249618        -0.64        
O_OH        O        0.75        0.12963        0.6916845329249618        -0.64        
O_OH        O        0.75        0.24074099999999998        0.6916845329249618        -0.64        
O_OH        O        0.75        0.351852        0.6916845329249618        -0.64        
O_OH        O        0.75        0.46296300000000007        0.6916845329249618        -0.64        
O_OH        O        0.75        0.574075        0.6916845329249618        -0.64        
O_OH        O        0.875        0.018519        0.6916845329249618        -0.64        
O_OH        O        0.875        0.12963        0.6916845329249618        -0.64        
O_OH        O        0.875        0.24074099999999998        0.6916845329249618        -0.64        
O_OH        O        0.875        0.351852        0.6916845329249618        -0.64        
O_OH        O        0.875        0.46296300000000007        0.6916845329249618        -0.64        
O_OH        O        0.875        0.574075        0.6916845329249618        -0.64        
O_OH        O        0.0        0.685186        0.6916845329249618        -0.64        
O_OH        O        0.125        0.685186        0.6916845329249618        -0.64        
O_OH        O        0.25        0.685186        0.6916845329249618        -0.64        
O_OH        O        0.375        0.685186        0.6916845329249618        -0.64        
O_OH        O        0.5        0.685186        0.6916845329249618        -0.64        
O_OH        O        0.625        0.685186        0.6916845329249618        -0.64        
O_OH        O        0.75        0.685186        0.6916845329249618        -0.64        
O_OH        O        0.875        0.685186        0.6916845329249618        -0.64        
O_OH        O        0.0        0.796297        0.6916845329249618        -0.64        
O_OH        O        0.125        0.796297        0.6916845329249618        -0.64        
O_OH        O        0.25        0.796297        0.6916845329249618        -0.64        
O_OH        O        0.375        0.796297        0.6916845329249618        -0.64        
O_OH        O        0.5        0.796297        0.6916845329249618        -0.64        
O_OH        O        0.625        0.796297        0.6916845329249618        -0.64        
O_OH        O        0.75        0.796297        0.6916845329249618        -0.64        
O_OH        O        0.875        0.796297        0.6916845329249618        -0.64        
O_OH        O        0.0        0.907408        0.6916845329249618        -0.64        
O_OH        O        0.125        0.907408        0.6916845329249618        -0.64        
O_OH        O        0.25        0.907408        0.6916845329249618        -0.64        
O_OH        O        0.375        0.907408        0.6916845329249618        -0.64        
O_OH        O        0.5        0.907408        0.6916845329249618        -0.64        
O_OH        O        0.625        0.907408        0.6916845329249618        -0.64        
O_OH        O        0.75        0.907408        0.6916845329249618        -0.64        
O_OH        O        0.875        0.907408        0.6916845329249618        -0.64        
H_OH        H        -0.017671479523550426        0.03338326041453605        0.3134639969372129        0.44        
H_OH        H        -0.02279791466710722        0.1311455582069529        0.3134639969372129        0.44        
H_OH        H        0.009146078549618032        0.26223294017163207        0.3134639969372129        0.44        
H_OH        H        0.010535032646484794        0.37266289806461694        0.3134639969372129        0.44        
H_OH        H        -0.007043506540166059        0.4852739512578609        0.3134639969372129        0.44        
H_OH        H        0.00918385863072545        0.5955499539861182        0.3134639969372129        0.44        
H_OH        H        0.13367079353942582        0.040217574826648124        0.3134639969372129        0.44        
H_OH        H        0.116269253990915        0.15130322393265397        0.3134639969372129        0.44        
H_OH        H        0.1155445358018339        0.2620913665816824        0.3134639969372129        0.44        
H_OH        H        0.14333752278789835        0.3658401946303324        0.3134639969372129        0.44        
H_OH        H        0.14347377792199698        0.47676095030801635        0.3134639969372129        0.44        
H_OH        H        0.14756742784517937        0.5777242165220506        0.3134639969372129        0.44        
H_OH        H        0.2350615569904207        0.0362637331477694        0.3134639969372129        0.44        
H_OH        H        0.2725010196364693        0.13368845559696657        0.3134639969372129        0.44        
H_OH        H        0.25406721525452        0.26381978294178354        0.3134639969372129        0.44        
H_OH        H        0.2343451966873457        0.3689335150843101        0.3134639969372129        0.44        
H_OH        H        0.23212297194280015        0.4775659220884032        0.3134639969372129        0.44        
H_OH        H        0.2619746040555939        0.5940485361209992        0.3134639969372129        0.44        
H_OH        H        0.3827138629912264        0.04059506111414098        0.3134639969372129        0.44        
H_OH        H        0.3811394344490441        0.15222069416071746        0.3134639969372129        0.44        
H_OH        H        0.3752200779771148        0.2641933624885127        0.3134639969372129        0.44        
H_OH        H        0.37118888700977504        0.37497680623996343        0.3134639969372129        0.44        
H_OH        H        0.3904735734596514        0.48021767210593064        0.3134639969372129        0.44        
H_OH        H        0.39070592885445043        0.5911069810330789        0.3134639969372129        0.44        
H_OH        H        0.49256736158517955        0.04069650439711056        0.3134639969372129        0.44        
H_OH        H        0.4771598183339985        0.13014373952725797        0.3134639969372129        0.44        
H_OH        H        0.5174802633425892        0.25584166951945675        0.3134639969372129        0.44        
H_OH        H        0.4927709731678983        0.37410032444281527        0.3134639969372129        0.44        
H_OH        H        0.47755231993572017        0.46732165484339877        0.3134639969372129        0.44        
H_OH        H        0.5214533277307196        0.5821375391002156        0.3134639969372129        0.44        
H_OH        H        0.6423202684971658        0.033812734807915294        0.3134639969372129        0.44        
H_OH        H        0.6173881412291106        0.15174334548937693        0.3134639969372129        0.44        
H_OH        H        0.6146182992898912        0.2616329506216667        0.3134639969372129        0.44        
H_OH        H        0.6217619153329041        0.3750686716165083        0.3134639969372129        0.44        
H_OH        H        0.6180526095848353        0.4853056900864704        0.3134639969372129        0.44        
H_OH        H        0.6475712754703055        0.5776990502855011        0.3134639969372129        0.44        
H_OH        H        0.7616668740941493        0.038683562601719866        0.3134639969372129        0.44        
H_OH        H        0.737155715448705        0.14902571843475007        0.3134639969372129        0.44        
H_OH        H        0.7335063261198669        0.25696923834306284        0.3134639969372129        0.44        
H_OH        H        0.7552308833999052        0.37468239544098075        0.3134639969372129        0.44        
H_OH        H        0.7721230388809228        0.46881513626100507        0.3134639969372129        0.44        
H_OH        H        0.7466737730143792        0.5972785353318126        0.3134639969372129        0.44        
H_OH        H        0.8822058092401291        0.04077526096498314        0.3134639969372129        0.44        
H_OH        H        0.8689430508680832        0.1522441487979756        0.3134639969372129        0.44        
H_OH        H        0.8522540928133379        0.24293034747921982        0.3134639969372129        0.44        
H_OH        H        0.8652351497661669        0.37305509046978624        0.3134639969372129        0.44        
H_OH        H        0.8669678871291805        0.4849191184728612        0.3134639969372129        0.44        
H_OH        H        0.8592753244189817        0.5910887411693582        0.3134639969372129        0.44        
H_OH        H        -0.015817813792744686        0.7021085052151137        0.3134639969372129        0.44        
H_OH        H        0.10611030839133043        0.6983771183075315        0.3134639969372129        0.44        
H_OH        H        0.22812474741255337        0.691948948545858        0.3134639969372129        0.44        
H_OH        H        0.3830436087475482        0.7071376826228866        0.3134639969372129        0.44        
H_OH        H        0.4849299724955462        0.7028130817212295        0.3134639969372129        0.44        
H_OH        H        0.6356578793899089        0.7059308699444462        0.3134639969372129        0.44        
H_OH        H        0.7589638224849115        0.7067587163014025        0.3134639969372129        0.44        
H_OH        H        0.8527815008471655        0.6906436941355976        0.3134639969372129        0.44        
H_OH        H        0.02049315154538383        0.8066629087940305        0.3134639969372129        0.44        
H_OH        H        0.1350710374156936        0.8173486054713268        0.3134639969372129        0.44        
H_OH        H        0.2719050755229899        0.8029574368768977        0.3134639969372129        0.44        
H_OH        H        0.3947936779426753        0.8080081470988528        0.3134639969372129        0.44        
H_OH        H        0.497433497055666        0.8196019838849135        0.3134639969372129        0.44        
H_OH        H        0.6109481767622515        0.8147892880406946        0.3134639969372129        0.44        
H_OH        H        0.7728450122552137        0.796474040638519        0.3134639969372129        0.44        
H_OH        H        0.8770000642213986        0.819660399101845        0.3134639969372129        0.44        
H_OH        H        0.01830665892652653        0.9214387358264683        0.3134639969372129        0.44        
H_OH        H        0.11264041297666834        0.9271328269539486        0.3134639969372129        0.44        
H_OH        H        0.23449389215979127        0.9246318631740007        0.3134639969372129        0.44        
H_OH        H        0.3524403312688182        0.9111074331955955        0.3134639969372129        0.44        
H_OH        H        0.5148574133221033        0.9252242867972468        0.3134639969372129        0.44        
H_OH        H        0.643205012545501        0.9215774362667382        0.3134639969372129        0.44        
H_OH        H        0.7527199721273743        0.9306946317936028        0.3134639969372129        0.44        
H_OH        H        0.8609699446995183        0.9259176990660792        0.3134639969372129        0.44        
H_OH        H        -0.015231223304164786        0.03599945270886646        0.6865360030627872        0.44        
H_OH        H        -0.01900261911524287        0.14264905554562574        0.6865360030627872        0.44        
H_OH        H        0.022519057063139936        0.24469261147887855        0.6865360030627872        0.44        
H_OH        H        -0.0020321944150247014        0.3752124767747523        0.6865360030627872        0.44        
H_OH        H        0.02221867857235403        0.46841992427239215        0.6865360030627872        0.44        
H_OH        H        0.01830419611367138        0.5881091218065782        0.6865360030627872        0.44        
H_OH        H        0.13140635506217513        0.04103144506943721        0.6865360030627872        0.44        
H_OH        H        0.11596166817023695        0.15116992666961776        0.6865360030627872        0.44        
H_OH        H        0.14658699202552727        0.2484183307197475        0.6865360030627872        0.44        
H_OH        H        0.14650688931000305        0.35976271793407416        0.6865360030627872        0.44        
H_OH        H        0.14400346515843623        0.47598075398662704        0.6865360030627872        0.44        
H_OH        H        0.14784144488081757        0.5745256787530164        0.6865360030627872        0.44        
H_OH        H        0.23918214960385273        0.03917641772591873        0.6865360030627872        0.44        
H_OH        H        0.2718745615024812        0.1363953039851623        0.6865360030627872        0.44        
H_OH        H        0.22800520204657085        0.24708215540447623        0.6865360030627872        0.44        
H_OH        H        0.2280802308161149        0.35846129292519957        0.6865360030627872        0.44        
H_OH        H        0.23095441084743681        0.4759157111242134        0.6865360030627872        0.44        
H_OH        H        0.2279109946410047        0.5800610936524941        0.6865360030627872        0.44        
H_OH        H        0.39668125228936046        0.02591109280832382        0.6865360030627872        0.44        
H_OH        H        0.395901580661711        0.13909750785069067        0.6865360030627872        0.44        
H_OH        H        0.3712798608663416        0.2638814138039043        0.6865360030627872        0.44        
H_OH        H        0.35469092313971556        0.36259293415063387        0.6865360030627872        0.44        
H_OH        H        0.39780712308801364        0.46432473576245126        0.6865360030627872        0.44        
H_OH        H        0.3573967303065127        0.5890243159901807        0.6865360030627872        0.44        
H_OH        H        0.5219313677431244        0.025087616352635515        0.6865360030627872        0.44        
H_OH        H        0.48542698493992636        0.14769215137004008        0.6865360030627872        0.44        
H_OH        H        0.5199671426214463        0.25213757865598146        0.6865360030627872        0.44        
H_OH        H        0.5227073638761922        0.3544287456736601        0.6865360030627872        0.44        
H_OH        H        0.5121455339427682        0.48282746589642767        0.6865360030627872        0.44        
H_OH        H        0.4776286684245876        0.5788293904731038        0.6865360030627872        0.44        
H_OH        H        0.6284828776991395        0.041698298766740374        0.6865360030627872        0.44        
H_OH        H        0.6076942329473086        0.1449410262416226        0.6865360030627872        0.44        
H_OH        H        0.6354246200737224        0.26161041446568534        0.6865360030627872        0.44        
H_OH        H        0.6421422918740944        0.36735563019991196        0.6865360030627872        0.44        
H_OH        H        0.6478441850961226        0.4632297831057972        0.6865360030627872        0.44        
H_OH        H        0.6173621246966396        0.5961788890842895        0.6865360030627872        0.44        
H_OH        H        0.7677481741679826        0.03328664292180675        0.6865360030627872        0.44        
H_OH        H        0.74890976879564        0.1530567296743387        0.6865360030627872        0.44        
H_OH        H        0.7701931232931861        0.2517099220227161        0.6865360030627872        0.44        
H_OH        H        0.7719909117835949        0.35820734452011993        0.6865360030627872        0.44        
H_OH        H        0.7331639266364811        0.47881633839642135        0.6865360030627872        0.44        
H_OH        H        0.7277228631207711        0.5792746758647292        0.6865360030627872        0.44        
H_OH        H        0.8976195462320978        0.021810615584417724        0.6865360030627872        0.44        
H_OH        H        0.8973021415388991        0.13471545375552976        0.6865360030627872        0.44        
H_OH        H        0.8857807199335442        0.2614188652351293        0.6865360030627872        0.44        
H_OH        H        0.8950816575683901        0.36303451091704675        0.6865360030627872        0.44        
H_OH        H        0.8972807596986471        0.4681462905086792        0.6865360030627872        0.44        
H_OH        H        0.8534437027597367        0.5818426946659422        0.6865360030627872        0.44        
H_OH        H        0.01447954776135905        0.7033272012677365        0.6865360030627872        0.44        
H_OH        H        0.13778547275449365        0.704622627661862        0.6865360030627872        0.44        
H_OH        H        0.2708286542447158        0.6948214045215364        0.6865360030627872        0.44        
H_OH        H        0.3530627509804135        0.6917338856764865        0.6865360030627872        0.44        
H_OH        H        0.5061101320817464        0.7077850653923786        0.6865360030627872        0.44        
H_OH        H        0.6276905174430306        0.7084762378009151        0.6865360030627872        0.44        
H_OH        H        0.7575791231866505        0.7073111925644406        0.6865360030627872        0.44        
H_OH        H        0.8928717843982719        0.6997956849686979        0.6865360030627872        0.44        
H_OH        H        -0.021732376858748823        0.8035291412080118        0.6865360030627872        0.44        
H_OH        H        0.14080853172111266        0.8132286439901225        0.6865360030627872        0.44        
H_OH        H        0.27281234374137875        0.7975632227549061        0.6865360030627872        0.44        
H_OH        H        0.3746038506028514        0.819746924443066        0.6865360030627872        0.44        
H_OH        H        0.4771757473993144        0.7973121541998243        0.6865360030627872        0.44        
H_OH        H        0.6353348392319785        0.8172134229839939        0.6865360030627872        0.44        
H_OH        H        0.7699513974778981        0.8077226035116738        0.6865360030627872        0.44        
H_OH        H        0.864881700076462        0.8173247066678709        0.6865360030627872        0.44        
H_OH        H        0.016173920807876455        0.9239719507848713        0.6865360030627872        0.44        
H_OH        H        0.10617961675424988        0.9207031172112278        0.6865360030627872        0.44        
H_OH        H        0.23212519745627777        0.9220137930145611        0.6865360030627872        0.44        
H_OH        H        0.35783401418422645        0.9228839756683798        0.6865360030627872        0.44        
H_OH        H        0.522841910336185        0.9078330897918132        0.6865360030627872        0.44        
H_OH        H        0.6399645633349892        0.9251295226712795        0.6865360030627872        0.44        
H_OH        H        0.7479368043500878        0.9307656126287347        0.6865360030627872        0.44        
H_OH        H        0.8521550778734468        0.9075969004619534        0.6865360030627872        0.44        
