data_graphite_ortho

_audit_creation_method RASPA-1.0
_audit_creation_date 2012-2-3
_audit_author_name 'David Dubbeldam'

_cell_length_a    39.36    
_cell_length_b    38.34    
_cell_length_c    25.2    
_cell_angle_alpha 90
_cell_angle_beta  90
_cell_angle_gamma 90
_cell_volume      38028.37      

_symmetry_cell_setting          triclinic
_symmetry_space_group_name_Hall 'P 1'
_symmetry_space_group_name_H-M  'P 1'
_symmetry_Int_Tables_number     1

_symmetry_equiv_pos_as_xyz 'x,y,z'

loop_
_atom_site_label
_atom_site_type_symbol
_atom_site_fract_x
_atom_site_fract_y
_atom_site_fract_z
_atom_site_charge
C_FG        C        0.0        0.018519        0.07020630952380952        0.2        
C2        C        0.03125        0.074075        0.07020630952380952        0        
C3        C        0.0        0.092592        0.07020630952380952        0        
C4        C        0.03125        0.037037        0.07020630952380952        0        
C1        C        0.0        0.12963        0.07020630952380952        0        
C2        C        0.03125        0.185185        0.07020630952380952        0        
C_FG        C        0.0        0.203703        0.07020630952380952        0.2        
C4        C        0.03125        0.148148        0.07020630952380952        0        
C1        C        0.0        0.24074099999999998        0.07020630952380952        0        
C2        C        0.03125        0.296297        0.07020630952380952        0        
C3        C        0.0        0.314815        0.07020630952380952        0        
C4        C        0.03125        0.259259        0.07020630952380952        0        
C_FG        C        0.0        0.351852        0.07020630952380952        0.2        
C2        C        0.03125        0.407408        0.07020630952380952        0        
C3        C        0.0        0.42592500000000005        0.07020630952380952        0        
C4        C        0.03125        0.37037        0.07020630952380952        0        
C1        C        0.0        0.46296300000000007        0.07020630952380952        0        
C2        C        0.03125        0.518519        0.07020630952380952        0        
C_FG        C        0.0        0.537037        0.07020630952380952        0.2        
C4        C        0.03125        0.481481        0.07020630952380952        0        
C1        C        0.0        0.574075        0.07020630952380952        0        
C2        C        0.03125        0.62963        0.07020630952380952        0        
C3        C        0.0        0.648148        0.07020630952380952        0        
C4        C        0.03125        0.592592        0.07020630952380952        0        
C1        C        0.0625        0.018519        0.07020630952380952        0        
C2        C        0.09375        0.074075        0.07020630952380952        0        
C3        C        0.0625        0.092592        0.07020630952380952        0        
C4        C        0.09375        0.037037        0.07020630952380952        0        
C1        C        0.0625        0.12963        0.07020630952380952        0        
C2        C        0.09375        0.185185        0.07020630952380952        0        
C3        C        0.0625        0.203703        0.07020630952380952        0        
C4        C        0.09375        0.148148        0.07020630952380952        0        
C1        C        0.0625        0.24074099999999998        0.07020630952380952        0        
C2        C        0.09375        0.296297        0.07020630952380952        0        
C3        C        0.0625        0.314815        0.07020630952380952        0        
C4        C        0.09375        0.259259        0.07020630952380952        0        
C1        C        0.0625        0.351852        0.07020630952380952        0        
C2        C        0.09375        0.407408        0.07020630952380952        0        
C3        C        0.0625        0.42592500000000005        0.07020630952380952        0        
C4        C        0.09375        0.37037        0.07020630952380952        0        
C1        C        0.0625        0.46296300000000007        0.07020630952380952        0        
C2        C        0.09375        0.518519        0.07020630952380952        0        
C3        C        0.0625        0.537037        0.07020630952380952        0        
C4        C        0.09375        0.481481        0.07020630952380952        0        
C1        C        0.0625        0.574075        0.07020630952380952        0        
C2        C        0.09375        0.62963        0.07020630952380952        0        
C3        C        0.0625        0.648148        0.07020630952380952        0        
C4        C        0.09375        0.592592        0.07020630952380952        0        
C_FG        C        0.125        0.018519        0.07020630952380952        0.2        
C2        C        0.15625        0.074075        0.07020630952380952        0        
C3        C        0.125        0.092592        0.07020630952380952        0        
C4        C        0.15625        0.037037        0.07020630952380952        0        
C1        C        0.125        0.12963        0.07020630952380952        0        
C2        C        0.15625        0.185185        0.07020630952380952        0        
C_FG        C        0.125        0.203703        0.07020630952380952        0.2        
C4        C        0.15625        0.148148        0.07020630952380952        0        
C1        C        0.125        0.24074099999999998        0.07020630952380952        0        
C2        C        0.15625        0.296297        0.07020630952380952        0        
C3        C        0.125        0.314815        0.07020630952380952        0        
C4        C        0.15625        0.259259        0.07020630952380952        0        
C_FG        C        0.125        0.351852        0.07020630952380952        0.2        
C2        C        0.15625        0.407408        0.07020630952380952        0        
C3        C        0.125        0.42592500000000005        0.07020630952380952        0        
C4        C        0.15625        0.37037        0.07020630952380952        0        
C1        C        0.125        0.46296300000000007        0.07020630952380952        0        
C2        C        0.15625        0.518519        0.07020630952380952        0        
C_FG        C        0.125        0.537037        0.07020630952380952        0.2        
C4        C        0.15625        0.481481        0.07020630952380952        0        
C1        C        0.125        0.574075        0.07020630952380952        0        
C2        C        0.15625        0.62963        0.07020630952380952        0        
C3        C        0.125        0.648148        0.07020630952380952        0        
C4        C        0.15625        0.592592        0.07020630952380952        0        
C1        C        0.1875        0.018519        0.07020630952380952        0        
C2        C        0.21875        0.074075        0.07020630952380952        0        
C3        C        0.1875        0.092592        0.07020630952380952        0        
C4        C        0.21875        0.037037        0.07020630952380952        0        
C1        C        0.1875        0.12963        0.07020630952380952        0        
C2        C        0.21875        0.185185        0.07020630952380952        0        
C3        C        0.1875        0.203703        0.07020630952380952        0        
C4        C        0.21875        0.148148        0.07020630952380952        0        
C1        C        0.1875        0.24074099999999998        0.07020630952380952        0        
C2        C        0.21875        0.296297        0.07020630952380952        0        
C3        C        0.1875        0.314815        0.07020630952380952        0        
C4        C        0.21875        0.259259        0.07020630952380952        0        
C1        C        0.1875        0.351852        0.07020630952380952        0        
C2        C        0.21875        0.407408        0.07020630952380952        0        
C3        C        0.1875        0.42592500000000005        0.07020630952380952        0        
C4        C        0.21875        0.37037        0.07020630952380952        0        
C1        C        0.1875        0.46296300000000007        0.07020630952380952        0        
C2        C        0.21875        0.518519        0.07020630952380952        0        
C3        C        0.1875        0.537037        0.07020630952380952        0        
C4        C        0.21875        0.481481        0.07020630952380952        0        
C1        C        0.1875        0.574075        0.07020630952380952        0        
C2        C        0.21875        0.62963        0.07020630952380952        0        
C3        C        0.1875        0.648148        0.07020630952380952        0        
C4        C        0.21875        0.592592        0.07020630952380952        0        
C_FG        C        0.25        0.018519        0.07020630952380952        0.2        
C2        C        0.28125        0.074075        0.07020630952380952        0        
C3        C        0.25        0.092592        0.07020630952380952        0        
C4        C        0.28125        0.037037        0.07020630952380952        0        
C1        C        0.25        0.12963        0.07020630952380952        0        
C2        C        0.28125        0.185185        0.07020630952380952        0        
C_FG        C        0.25        0.203703        0.07020630952380952        0.2        
C4        C        0.28125        0.148148        0.07020630952380952        0        
C1        C        0.25        0.24074099999999998        0.07020630952380952        0        
C2        C        0.28125        0.296297        0.07020630952380952        0        
C3        C        0.25        0.314815        0.07020630952380952        0        
C4        C        0.28125        0.259259        0.07020630952380952        0        
C_FG        C        0.25        0.351852        0.07020630952380952        0.2        
C2        C        0.28125        0.407408        0.07020630952380952        0        
C3        C        0.25        0.42592500000000005        0.07020630952380952        0        
C4        C        0.28125        0.37037        0.07020630952380952        0        
C1        C        0.25        0.46296300000000007        0.07020630952380952        0        
C2        C        0.28125        0.518519        0.07020630952380952        0        
C_FG        C        0.25        0.537037        0.07020630952380952        0.2        
C4        C        0.28125        0.481481        0.07020630952380952        0        
C1        C        0.25        0.574075        0.07020630952380952        0        
C2        C        0.28125        0.62963        0.07020630952380952        0        
C3        C        0.25        0.648148        0.07020630952380952        0        
C4        C        0.28125        0.592592        0.07020630952380952        0        
C1        C        0.3125        0.018519        0.07020630952380952        0        
C2        C        0.34375        0.074075        0.07020630952380952        0        
C3        C        0.3125        0.092592        0.07020630952380952        0        
C4        C        0.34375        0.037037        0.07020630952380952        0        
C1        C        0.3125        0.12963        0.07020630952380952        0        
C2        C        0.34375        0.185185        0.07020630952380952        0        
C3        C        0.3125        0.203703        0.07020630952380952        0        
C4        C        0.34375        0.148148        0.07020630952380952        0        
C1        C        0.3125        0.24074099999999998        0.07020630952380952        0        
C2        C        0.34375        0.296297        0.07020630952380952        0        
C3        C        0.3125        0.314815        0.07020630952380952        0        
C4        C        0.34375        0.259259        0.07020630952380952        0        
C1        C        0.3125        0.351852        0.07020630952380952        0        
C2        C        0.34375        0.407408        0.07020630952380952        0        
C3        C        0.3125        0.42592500000000005        0.07020630952380952        0        
C4        C        0.34375        0.37037        0.07020630952380952        0        
C1        C        0.3125        0.46296300000000007        0.07020630952380952        0        
C2        C        0.34375        0.518519        0.07020630952380952        0        
C3        C        0.3125        0.537037        0.07020630952380952        0        
C4        C        0.34375        0.481481        0.07020630952380952        0        
C1        C        0.3125        0.574075        0.07020630952380952        0        
C2        C        0.34375        0.62963        0.07020630952380952        0        
C3        C        0.3125        0.648148        0.07020630952380952        0        
C4        C        0.34375        0.592592        0.07020630952380952        0        
C_FG        C        0.375        0.018519        0.07020630952380952        0.2        
C2        C        0.40625        0.074075        0.07020630952380952        0        
C3        C        0.375        0.092592        0.07020630952380952        0        
C4        C        0.40625        0.037037        0.07020630952380952        0        
C1        C        0.375        0.12963        0.07020630952380952        0        
C2        C        0.40625        0.185185        0.07020630952380952        0        
C_FG        C        0.375        0.203703        0.07020630952380952        0.2        
C4        C        0.40625        0.148148        0.07020630952380952        0        
C1        C        0.375        0.24074099999999998        0.07020630952380952        0        
C2        C        0.40625        0.296297        0.07020630952380952        0        
C3        C        0.375        0.314815        0.07020630952380952        0        
C4        C        0.40625        0.259259        0.07020630952380952        0        
C_FG        C        0.375        0.351852        0.07020630952380952        0.2        
C2        C        0.40625        0.407408        0.07020630952380952        0        
C3        C        0.375        0.42592500000000005        0.07020630952380952        0        
C4        C        0.40625        0.37037        0.07020630952380952        0        
C1        C        0.375        0.46296300000000007        0.07020630952380952        0        
C2        C        0.40625        0.518519        0.07020630952380952        0        
C_FG        C        0.375        0.537037        0.07020630952380952        0.2        
C4        C        0.40625        0.481481        0.07020630952380952        0        
C1        C        0.375        0.574075        0.07020630952380952        0        
C2        C        0.40625        0.62963        0.07020630952380952        0        
C3        C        0.375        0.648148        0.07020630952380952        0        
C4        C        0.40625        0.592592        0.07020630952380952        0        
C1        C        0.4375        0.018519        0.07020630952380952        0        
C2        C        0.46875        0.074075        0.07020630952380952        0        
C3        C        0.4375        0.092592        0.07020630952380952        0        
C4        C        0.46875        0.037037        0.07020630952380952        0        
C1        C        0.4375        0.12963        0.07020630952380952        0        
C2        C        0.46875        0.185185        0.07020630952380952        0        
C3        C        0.4375        0.203703        0.07020630952380952        0        
C4        C        0.46875        0.148148        0.07020630952380952        0        
C1        C        0.4375        0.24074099999999998        0.07020630952380952        0        
C2        C        0.46875        0.296297        0.07020630952380952        0        
C3        C        0.4375        0.314815        0.07020630952380952        0        
C4        C        0.46875        0.259259        0.07020630952380952        0        
C1        C        0.4375        0.351852        0.07020630952380952        0        
C2        C        0.46875        0.407408        0.07020630952380952        0        
C3        C        0.4375        0.42592500000000005        0.07020630952380952        0        
C4        C        0.46875        0.37037        0.07020630952380952        0        
C1        C        0.4375        0.46296300000000007        0.07020630952380952        0        
C2        C        0.46875        0.518519        0.07020630952380952        0        
C3        C        0.4375        0.537037        0.07020630952380952        0        
C4        C        0.46875        0.481481        0.07020630952380952        0        
C1        C        0.4375        0.574075        0.07020630952380952        0        
C2        C        0.46875        0.62963        0.07020630952380952        0        
C3        C        0.4375        0.648148        0.07020630952380952        0        
C4        C        0.46875        0.592592        0.07020630952380952        0        
C_FG        C        0.5        0.018519        0.07020630952380952        0.2        
C2        C        0.53125        0.074075        0.07020630952380952        0        
C3        C        0.5        0.092592        0.07020630952380952        0        
C4        C        0.53125        0.037037        0.07020630952380952        0        
C1        C        0.5        0.12963        0.07020630952380952        0        
C2        C        0.53125        0.185185        0.07020630952380952        0        
C_FG        C        0.5        0.203703        0.07020630952380952        0.2        
C4        C        0.53125        0.148148        0.07020630952380952        0        
C1        C        0.5        0.24074099999999998        0.07020630952380952        0        
C2        C        0.53125        0.296297        0.07020630952380952        0        
C3        C        0.5        0.314815        0.07020630952380952        0        
C4        C        0.53125        0.259259        0.07020630952380952        0        
C_FG        C        0.5        0.351852        0.07020630952380952        0.2        
C2        C        0.53125        0.407408        0.07020630952380952        0        
C3        C        0.5        0.42592500000000005        0.07020630952380952        0        
C4        C        0.53125        0.37037        0.07020630952380952        0        
C1        C        0.5        0.46296300000000007        0.07020630952380952        0        
C2        C        0.53125        0.518519        0.07020630952380952        0        
C_FG        C        0.5        0.537037        0.07020630952380952        0.2        
C4        C        0.53125        0.481481        0.07020630952380952        0        
C1        C        0.5        0.574075        0.07020630952380952        0        
C2        C        0.53125        0.62963        0.07020630952380952        0        
C3        C        0.5        0.648148        0.07020630952380952        0        
C4        C        0.53125        0.592592        0.07020630952380952        0        
C1        C        0.5625        0.018519        0.07020630952380952        0        
C2        C        0.59375        0.074075        0.07020630952380952        0        
C3        C        0.5625        0.092592        0.07020630952380952        0        
C4        C        0.59375        0.037037        0.07020630952380952        0        
C1        C        0.5625        0.12963        0.07020630952380952        0        
C2        C        0.59375        0.185185        0.07020630952380952        0        
C3        C        0.5625        0.203703        0.07020630952380952        0        
C4        C        0.59375        0.148148        0.07020630952380952        0        
C1        C        0.5625        0.24074099999999998        0.07020630952380952        0        
C2        C        0.59375        0.296297        0.07020630952380952        0        
C3        C        0.5625        0.314815        0.07020630952380952        0        
C4        C        0.59375        0.259259        0.07020630952380952        0        
C1        C        0.5625        0.351852        0.07020630952380952        0        
C2        C        0.59375        0.407408        0.07020630952380952        0        
C3        C        0.5625        0.42592500000000005        0.07020630952380952        0        
C4        C        0.59375        0.37037        0.07020630952380952        0        
C1        C        0.5625        0.46296300000000007        0.07020630952380952        0        
C2        C        0.59375        0.518519        0.07020630952380952        0        
C3        C        0.5625        0.537037        0.07020630952380952        0        
C4        C        0.59375        0.481481        0.07020630952380952        0        
C1        C        0.5625        0.574075        0.07020630952380952        0        
C2        C        0.59375        0.62963        0.07020630952380952        0        
C3        C        0.5625        0.648148        0.07020630952380952        0        
C4        C        0.59375        0.592592        0.07020630952380952        0        
C_FG        C        0.625        0.018519        0.07020630952380952        0.2        
C2        C        0.65625        0.074075        0.07020630952380952        0        
C3        C        0.625        0.092592        0.07020630952380952        0        
C4        C        0.65625        0.037037        0.07020630952380952        0        
C1        C        0.625        0.12963        0.07020630952380952        0        
C2        C        0.65625        0.185185        0.07020630952380952        0        
C_FG        C        0.625        0.203703        0.07020630952380952        0.2        
C4        C        0.65625        0.148148        0.07020630952380952        0        
C1        C        0.625        0.24074099999999998        0.07020630952380952        0        
C2        C        0.65625        0.296297        0.07020630952380952        0        
C3        C        0.625        0.314815        0.07020630952380952        0        
C4        C        0.65625        0.259259        0.07020630952380952        0        
C_FG        C        0.625        0.351852        0.07020630952380952        0.2        
C2        C        0.65625        0.407408        0.07020630952380952        0        
C3        C        0.625        0.42592500000000005        0.07020630952380952        0        
C4        C        0.65625        0.37037        0.07020630952380952        0        
C1        C        0.625        0.46296300000000007        0.07020630952380952        0        
C2        C        0.65625        0.518519        0.07020630952380952        0        
C_FG        C        0.625        0.537037        0.07020630952380952        0.2        
C4        C        0.65625        0.481481        0.07020630952380952        0        
C1        C        0.625        0.574075        0.07020630952380952        0        
C2        C        0.65625        0.62963        0.07020630952380952        0        
C3        C        0.625        0.648148        0.07020630952380952        0        
C4        C        0.65625        0.592592        0.07020630952380952        0        
C1        C        0.6875        0.018519        0.07020630952380952        0        
C2        C        0.71875        0.074075        0.07020630952380952        0        
C3        C        0.6875        0.092592        0.07020630952380952        0        
C4        C        0.71875        0.037037        0.07020630952380952        0        
C1        C        0.6875        0.12963        0.07020630952380952        0        
C2        C        0.71875        0.185185        0.07020630952380952        0        
C3        C        0.6875        0.203703        0.07020630952380952        0        
C4        C        0.71875        0.148148        0.07020630952380952        0        
C1        C        0.6875        0.24074099999999998        0.07020630952380952        0        
C2        C        0.71875        0.296297        0.07020630952380952        0        
C3        C        0.6875        0.314815        0.07020630952380952        0        
C4        C        0.71875        0.259259        0.07020630952380952        0        
C1        C        0.6875        0.351852        0.07020630952380952        0        
C2        C        0.71875        0.407408        0.07020630952380952        0        
C3        C        0.6875        0.42592500000000005        0.07020630952380952        0        
C4        C        0.71875        0.37037        0.07020630952380952        0        
C1        C        0.6875        0.46296300000000007        0.07020630952380952        0        
C2        C        0.71875        0.518519        0.07020630952380952        0        
C3        C        0.6875        0.537037        0.07020630952380952        0        
C4        C        0.71875        0.481481        0.07020630952380952        0        
C1        C        0.6875        0.574075        0.07020630952380952        0        
C2        C        0.71875        0.62963        0.07020630952380952        0        
C3        C        0.6875        0.648148        0.07020630952380952        0        
C4        C        0.71875        0.592592        0.07020630952380952        0        
C_FG        C        0.75        0.018519        0.07020630952380952        0.2        
C2        C        0.78125        0.074075        0.07020630952380952        0        
C3        C        0.75        0.092592        0.07020630952380952        0        
C4        C        0.78125        0.037037        0.07020630952380952        0        
C1        C        0.75        0.12963        0.07020630952380952        0        
C2        C        0.78125        0.185185        0.07020630952380952        0        
C_FG        C        0.75        0.203703        0.07020630952380952        0.2        
C4        C        0.78125        0.148148        0.07020630952380952        0        
C1        C        0.75        0.24074099999999998        0.07020630952380952        0        
C2        C        0.78125        0.296297        0.07020630952380952        0        
C3        C        0.75        0.314815        0.07020630952380952        0        
C4        C        0.78125        0.259259        0.07020630952380952        0        
C_FG        C        0.75        0.351852        0.07020630952380952        0.2        
C2        C        0.78125        0.407408        0.07020630952380952        0        
C3        C        0.75        0.42592500000000005        0.07020630952380952        0        
C4        C        0.78125        0.37037        0.07020630952380952        0        
C1        C        0.75        0.46296300000000007        0.07020630952380952        0        
C2        C        0.78125        0.518519        0.07020630952380952        0        
C_FG        C        0.75        0.537037        0.07020630952380952        0.2        
C4        C        0.78125        0.481481        0.07020630952380952        0        
C1        C        0.75        0.574075        0.07020630952380952        0        
C2        C        0.78125        0.62963        0.07020630952380952        0        
C3        C        0.75        0.648148        0.07020630952380952        0        
C4        C        0.78125        0.592592        0.07020630952380952        0        
C1        C        0.8125        0.018519        0.07020630952380952        0        
C2        C        0.84375        0.074075        0.07020630952380952        0        
C3        C        0.8125        0.092592        0.07020630952380952        0        
C4        C        0.84375        0.037037        0.07020630952380952        0        
C1        C        0.8125        0.12963        0.07020630952380952        0        
C2        C        0.84375        0.185185        0.07020630952380952        0        
C3        C        0.8125        0.203703        0.07020630952380952        0        
C4        C        0.84375        0.148148        0.07020630952380952        0        
C1        C        0.8125        0.24074099999999998        0.07020630952380952        0        
C2        C        0.84375        0.296297        0.07020630952380952        0        
C3        C        0.8125        0.314815        0.07020630952380952        0        
C4        C        0.84375        0.259259        0.07020630952380952        0        
C1        C        0.8125        0.351852        0.07020630952380952        0        
C2        C        0.84375        0.407408        0.07020630952380952        0        
C3        C        0.8125        0.42592500000000005        0.07020630952380952        0        
C4        C        0.84375        0.37037        0.07020630952380952        0        
C1        C        0.8125        0.46296300000000007        0.07020630952380952        0        
C2        C        0.84375        0.518519        0.07020630952380952        0        
C3        C        0.8125        0.537037        0.07020630952380952        0        
C4        C        0.84375        0.481481        0.07020630952380952        0        
C1        C        0.8125        0.574075        0.07020630952380952        0        
C2        C        0.84375        0.62963        0.07020630952380952        0        
C3        C        0.8125        0.648148        0.07020630952380952        0        
C4        C        0.84375        0.592592        0.07020630952380952        0        
C_FG        C        0.875        0.018519        0.07020630952380952        0.2        
C2        C        0.9062500000000001        0.074075        0.07020630952380952        0        
C3        C        0.875        0.092592        0.07020630952380952        0        
C4        C        0.9062500000000001        0.037037        0.07020630952380952        0        
C1        C        0.875        0.12963        0.07020630952380952        0        
C2        C        0.9062500000000001        0.185185        0.07020630952380952        0        
C_FG        C        0.875        0.203703        0.07020630952380952        0.2        
C4        C        0.9062500000000001        0.148148        0.07020630952380952        0        
C1        C        0.875        0.24074099999999998        0.07020630952380952        0        
C2        C        0.9062500000000001        0.296297        0.07020630952380952        0        
C3        C        0.875        0.314815        0.07020630952380952        0        
C4        C        0.9062500000000001        0.259259        0.07020630952380952        0        
C_FG        C        0.875        0.351852        0.07020630952380952        0.2        
C2        C        0.9062500000000001        0.407408        0.07020630952380952        0        
C3        C        0.875        0.42592500000000005        0.07020630952380952        0        
C4        C        0.9062500000000001        0.37037        0.07020630952380952        0        
C1        C        0.875        0.46296300000000007        0.07020630952380952        0        
C2        C        0.9062500000000001        0.518519        0.07020630952380952        0        
C_FG        C        0.875        0.537037        0.07020630952380952        0.2        
C4        C        0.9062500000000001        0.481481        0.07020630952380952        0        
C1        C        0.875        0.574075        0.07020630952380952        0        
C2        C        0.9062500000000001        0.62963        0.07020630952380952        0        
C3        C        0.875        0.648148        0.07020630952380952        0        
C4        C        0.9062500000000001        0.592592        0.07020630952380952        0        
C1        C        0.9375        0.018519        0.07020630952380952        0        
C2        C        0.9687500000000001        0.074075        0.07020630952380952        0        
C3        C        0.9375        0.092592        0.07020630952380952        0        
C4        C        0.9687500000000001        0.037037        0.07020630952380952        0        
C1        C        0.9375        0.12963        0.07020630952380952        0        
C2        C        0.9687500000000001        0.185185        0.07020630952380952        0        
C3        C        0.9375        0.203703        0.07020630952380952        0        
C4        C        0.9687500000000001        0.148148        0.07020630952380952        0        
C1        C        0.9375        0.24074099999999998        0.07020630952380952        0        
C2        C        0.9687500000000001        0.296297        0.07020630952380952        0        
C3        C        0.9375        0.314815        0.07020630952380952        0        
C4        C        0.9687500000000001        0.259259        0.07020630952380952        0        
C1        C        0.9375        0.351852        0.07020630952380952        0        
C2        C        0.9687500000000001        0.407408        0.07020630952380952        0        
C3        C        0.9375        0.42592500000000005        0.07020630952380952        0        
C4        C        0.9687500000000001        0.37037        0.07020630952380952        0        
C1        C        0.9375        0.46296300000000007        0.07020630952380952        0        
C2        C        0.9687500000000001        0.518519        0.07020630952380952        0        
C3        C        0.9375        0.537037        0.07020630952380952        0        
C4        C        0.9687500000000001        0.481481        0.07020630952380952        0        
C1        C        0.9375        0.574075        0.07020630952380952        0        
C2        C        0.9687500000000001        0.62963        0.07020630952380952        0        
C3        C        0.9375        0.648148        0.07020630952380952        0        
C4        C        0.9687500000000001        0.592592        0.07020630952380952        0        
C_FG        C        0.0        0.685186        0.07020630952380952        0.2        
C1        C        0.0625        0.685186        0.07020630952380952        0        
C_FG        C        0.125        0.685186        0.07020630952380952        0.2        
C1        C        0.1875        0.685186        0.07020630952380952        0        
C_FG        C        0.25        0.685186        0.07020630952380952        0.2        
C1        C        0.3125        0.685186        0.07020630952380952        0        
C_FG        C        0.375        0.685186        0.07020630952380952        0.2        
C1        C        0.4375        0.685186        0.07020630952380952        0        
C_FG        C        0.5        0.685186        0.07020630952380952        0.2        
C1        C        0.5625        0.685186        0.07020630952380952        0        
C_FG        C        0.625        0.685186        0.07020630952380952        0.2        
C1        C        0.6875        0.685186        0.07020630952380952        0        
C_FG        C        0.75        0.685186        0.07020630952380952        0.2        
C1        C        0.8125        0.685186        0.07020630952380952        0        
C_FG        C        0.875        0.685186        0.07020630952380952        0.2        
C1        C        0.9375        0.685186        0.07020630952380952        0        
C2        C        0.03125        0.740741        0.07020630952380952        0        
C2        C        0.09375        0.740741        0.07020630952380952        0        
C2        C        0.15625        0.740741        0.07020630952380952        0        
C2        C        0.21875        0.740741        0.07020630952380952        0        
C2        C        0.28125        0.740741        0.07020630952380952        0        
C2        C        0.34375        0.740741        0.07020630952380952        0        
C2        C        0.40625        0.740741        0.07020630952380952        0        
C2        C        0.46875        0.740741        0.07020630952380952        0        
C2        C        0.53125        0.740741        0.07020630952380952        0        
C2        C        0.59375        0.740741        0.07020630952380952        0        
C2        C        0.65625        0.740741        0.07020630952380952        0        
C2        C        0.71875        0.740741        0.07020630952380952        0        
C2        C        0.78125        0.740741        0.07020630952380952        0        
C2        C        0.84375        0.740741        0.07020630952380952        0        
C2        C        0.9062500000000001        0.740741        0.07020630952380952        0        
C2        C        0.9687500000000001        0.740741        0.07020630952380952        0        
C3        C        0.0        0.759259        0.07020630952380952        0        
C3        C        0.0625        0.759259        0.07020630952380952        0        
C3        C        0.125        0.759259        0.07020630952380952        0        
C3        C        0.1875        0.759259        0.07020630952380952        0        
C3        C        0.25        0.759259        0.07020630952380952        0        
C3        C        0.3125        0.759259        0.07020630952380952        0        
C3        C        0.375        0.759259        0.07020630952380952        0        
C3        C        0.4375        0.759259        0.07020630952380952        0        
C3        C        0.5        0.759259        0.07020630952380952        0        
C3        C        0.5625        0.759259        0.07020630952380952        0        
C3        C        0.625        0.759259        0.07020630952380952        0        
C3        C        0.6875        0.759259        0.07020630952380952        0        
C3        C        0.75        0.759259        0.07020630952380952        0        
C3        C        0.8125        0.759259        0.07020630952380952        0        
C3        C        0.875        0.759259        0.07020630952380952        0        
C3        C        0.9375        0.759259        0.07020630952380952        0        
C4        C        0.03125        0.703703        0.07020630952380952        0        
C4        C        0.09375        0.703703        0.07020630952380952        0        
C4        C        0.15625        0.703703        0.07020630952380952        0        
C4        C        0.21875        0.703703        0.07020630952380952        0        
C4        C        0.28125        0.703703        0.07020630952380952        0        
C4        C        0.34375        0.703703        0.07020630952380952        0        
C4        C        0.40625        0.703703        0.07020630952380952        0        
C4        C        0.46875        0.703703        0.07020630952380952        0        
C4        C        0.53125        0.703703        0.07020630952380952        0        
C4        C        0.59375        0.703703        0.07020630952380952        0        
C4        C        0.65625        0.703703        0.07020630952380952        0        
C4        C        0.71875        0.703703        0.07020630952380952        0        
C4        C        0.78125        0.703703        0.07020630952380952        0        
C4        C        0.84375        0.703703        0.07020630952380952        0        
C4        C        0.9062500000000001        0.703703        0.07020630952380952        0        
C4        C        0.9687500000000001        0.703703        0.07020630952380952        0        
C1        C        0.0        0.796297        0.07020630952380952        0        
C1        C        0.0625        0.796297        0.07020630952380952        0        
C1        C        0.125        0.796297        0.07020630952380952        0        
C1        C        0.1875        0.796297        0.07020630952380952        0        
C1        C        0.25        0.796297        0.07020630952380952        0        
C1        C        0.3125        0.796297        0.07020630952380952        0        
C1        C        0.375        0.796297        0.07020630952380952        0        
C1        C        0.4375        0.796297        0.07020630952380952        0        
C1        C        0.5        0.796297        0.07020630952380952        0        
C1        C        0.5625        0.796297        0.07020630952380952        0        
C1        C        0.625        0.796297        0.07020630952380952        0        
C1        C        0.6875        0.796297        0.07020630952380952        0        
C1        C        0.75        0.796297        0.07020630952380952        0        
C1        C        0.8125        0.796297        0.07020630952380952        0        
C1        C        0.875        0.796297        0.07020630952380952        0        
C1        C        0.9375        0.796297        0.07020630952380952        0        
C2        C        0.03125        0.851852        0.07020630952380952        0        
C2        C        0.09375        0.851852        0.07020630952380952        0        
C2        C        0.15625        0.851852        0.07020630952380952        0        
C2        C        0.21875        0.851852        0.07020630952380952        0        
C2        C        0.28125        0.851852        0.07020630952380952        0        
C2        C        0.34375        0.851852        0.07020630952380952        0        
C2        C        0.40625        0.851852        0.07020630952380952        0        
C2        C        0.46875        0.851852        0.07020630952380952        0        
C2        C        0.53125        0.851852        0.07020630952380952        0        
C2        C        0.59375        0.851852        0.07020630952380952        0        
C2        C        0.65625        0.851852        0.07020630952380952        0        
C2        C        0.71875        0.851852        0.07020630952380952        0        
C2        C        0.78125        0.851852        0.07020630952380952        0        
C2        C        0.84375        0.851852        0.07020630952380952        0        
C2        C        0.9062500000000001        0.851852        0.07020630952380952        0        
C2        C        0.9687500000000001        0.851852        0.07020630952380952        0        
C_FG        C        0.0        0.87037        0.07020630952380952        0.2        
C3        C        0.0625        0.87037        0.07020630952380952        0        
C_FG        C        0.125        0.87037        0.07020630952380952        0.2        
C3        C        0.1875        0.87037        0.07020630952380952        0        
C_FG        C        0.25        0.87037        0.07020630952380952        0.2        
C3        C        0.3125        0.87037        0.07020630952380952        0        
C_FG        C        0.375        0.87037        0.07020630952380952        0.2        
C3        C        0.4375        0.87037        0.07020630952380952        0        
C_FG        C        0.5        0.87037        0.07020630952380952        0.2        
C3        C        0.5625        0.87037        0.07020630952380952        0        
C_FG        C        0.625        0.87037        0.07020630952380952        0.2        
C3        C        0.6875        0.87037        0.07020630952380952        0        
C_FG        C        0.75        0.87037        0.07020630952380952        0.2        
C3        C        0.8125        0.87037        0.07020630952380952        0        
C_FG        C        0.875        0.87037        0.07020630952380952        0.2        
C3        C        0.9375        0.87037        0.07020630952380952        0        
C4        C        0.03125        0.814814        0.07020630952380952        0        
C4        C        0.09375        0.814814        0.07020630952380952        0        
C4        C        0.15625        0.814814        0.07020630952380952        0        
C4        C        0.21875        0.814814        0.07020630952380952        0        
C4        C        0.28125        0.814814        0.07020630952380952        0        
C4        C        0.34375        0.814814        0.07020630952380952        0        
C4        C        0.40625        0.814814        0.07020630952380952        0        
C4        C        0.46875        0.814814        0.07020630952380952        0        
C4        C        0.53125        0.814814        0.07020630952380952        0        
C4        C        0.59375        0.814814        0.07020630952380952        0        
C4        C        0.65625        0.814814        0.07020630952380952        0        
C4        C        0.71875        0.814814        0.07020630952380952        0        
C4        C        0.78125        0.814814        0.07020630952380952        0        
C4        C        0.84375        0.814814        0.07020630952380952        0        
C4        C        0.9062500000000001        0.814814        0.07020630952380952        0        
C4        C        0.9687500000000001        0.814814        0.07020630952380952        0        
C1        C        0.0        0.907408        0.07020630952380952        0        
C1        C        0.0625        0.907408        0.07020630952380952        0        
C1        C        0.125        0.907408        0.07020630952380952        0        
C1        C        0.1875        0.907408        0.07020630952380952        0        
C1        C        0.25        0.907408        0.07020630952380952        0        
C1        C        0.3125        0.907408        0.07020630952380952        0        
C1        C        0.375        0.907408        0.07020630952380952        0        
C1        C        0.4375        0.907408        0.07020630952380952        0        
C1        C        0.5        0.907408        0.07020630952380952        0        
C1        C        0.5625        0.907408        0.07020630952380952        0        
C1        C        0.625        0.907408        0.07020630952380952        0        
C1        C        0.6875        0.907408        0.07020630952380952        0        
C1        C        0.75        0.907408        0.07020630952380952        0        
C1        C        0.8125        0.907408        0.07020630952380952        0        
C1        C        0.875        0.907408        0.07020630952380952        0        
C1        C        0.9375        0.907408        0.07020630952380952        0        
C2        C        0.03125        0.962963        0.07020630952380952        0        
C2        C        0.09375        0.962963        0.07020630952380952        0        
C2        C        0.15625        0.962963        0.07020630952380952        0        
C2        C        0.21875        0.962963        0.07020630952380952        0        
C2        C        0.28125        0.962963        0.07020630952380952        0        
C2        C        0.34375        0.962963        0.07020630952380952        0        
C2        C        0.40625        0.962963        0.07020630952380952        0        
C2        C        0.46875        0.962963        0.07020630952380952        0        
C2        C        0.53125        0.962963        0.07020630952380952        0        
C2        C        0.59375        0.962963        0.07020630952380952        0        
C2        C        0.65625        0.962963        0.07020630952380952        0        
C2        C        0.71875        0.962963        0.07020630952380952        0        
C2        C        0.78125        0.962963        0.07020630952380952        0        
C2        C        0.84375        0.962963        0.07020630952380952        0        
C2        C        0.9062500000000001        0.962963        0.07020630952380952        0        
C2        C        0.9687500000000001        0.962963        0.07020630952380952        0        
C3        C        0.0        0.9814809999999999        0.07020630952380952        0        
C3        C        0.0625        0.9814809999999999        0.07020630952380952        0        
C3        C        0.125        0.9814809999999999        0.07020630952380952        0        
C3        C        0.1875        0.9814809999999999        0.07020630952380952        0        
C3        C        0.25        0.9814809999999999        0.07020630952380952        0        
C3        C        0.3125        0.9814809999999999        0.07020630952380952        0        
C3        C        0.375        0.9814809999999999        0.07020630952380952        0        
C3        C        0.4375        0.9814809999999999        0.07020630952380952        0        
C3        C        0.5        0.9814809999999999        0.07020630952380952        0        
C3        C        0.5625        0.9814809999999999        0.07020630952380952        0        
C3        C        0.625        0.9814809999999999        0.07020630952380952        0        
C3        C        0.6875        0.9814809999999999        0.07020630952380952        0        
C3        C        0.75        0.9814809999999999        0.07020630952380952        0        
C3        C        0.8125        0.9814809999999999        0.07020630952380952        0        
C3        C        0.875        0.9814809999999999        0.07020630952380952        0        
C3        C        0.9375        0.9814809999999999        0.07020630952380952        0        
C4        C        0.03125        0.925925        0.07020630952380952        0        
C4        C        0.09375        0.925925        0.07020630952380952        0        
C4        C        0.15625        0.925925        0.07020630952380952        0        
C4        C        0.21875        0.925925        0.07020630952380952        0        
C4        C        0.28125        0.925925        0.07020630952380952        0        
C4        C        0.34375        0.925925        0.07020630952380952        0        
C4        C        0.40625        0.925925        0.07020630952380952        0        
C4        C        0.46875        0.925925        0.07020630952380952        0        
C4        C        0.53125        0.925925        0.07020630952380952        0        
C4        C        0.59375        0.925925        0.07020630952380952        0        
C4        C        0.65625        0.925925        0.07020630952380952        0        
C4        C        0.71875        0.925925        0.07020630952380952        0        
C4        C        0.78125        0.925925        0.07020630952380952        0        
C4        C        0.84375        0.925925        0.07020630952380952        0        
C4        C        0.9062500000000001        0.925925        0.07020630952380952        0        
C4        C        0.9687500000000001        0.925925        0.07020630952380952        0        
C1        C        0.0        0.018519        0.2031433095238095        0        
C2        C        0.03125        0.074075        0.2031433095238095        0        
C3        C        0.0        0.092592        0.2031433095238095        0        
C4        C        0.03125        0.037037        0.2031433095238095        0        
C1        C        0.0        0.12963        0.2031433095238095        0        
C2        C        0.03125        0.185185        0.2031433095238095        0        
C3        C        0.0        0.203703        0.2031433095238095        0        
C4        C        0.03125        0.148148        0.2031433095238095        0        
C1        C        0.0        0.24074099999999998        0.2031433095238095        0        
C2        C        0.03125        0.296297        0.2031433095238095        0        
C3        C        0.0        0.314815        0.2031433095238095        0        
C4        C        0.03125        0.259259        0.2031433095238095        0        
C1        C        0.0        0.351852        0.2031433095238095        0        
C2        C        0.03125        0.407408        0.2031433095238095        0        
C3        C        0.0        0.42592500000000005        0.2031433095238095        0        
C4        C        0.03125        0.37037        0.2031433095238095        0        
C1        C        0.0        0.46296300000000007        0.2031433095238095        0        
C2        C        0.03125        0.518519        0.2031433095238095        0        
C3        C        0.0        0.537037        0.2031433095238095        0        
C4        C        0.03125        0.481481        0.2031433095238095        0        
C1        C        0.0        0.574075        0.2031433095238095        0        
C2        C        0.03125        0.62963        0.2031433095238095        0        
C3        C        0.0        0.648148        0.2031433095238095        0        
C4        C        0.03125        0.592592        0.2031433095238095        0        
C1        C        0.0625        0.018519        0.2031433095238095        0        
C2        C        0.09375        0.074075        0.2031433095238095        0        
C3        C        0.0625        0.092592        0.2031433095238095        0        
C4        C        0.09375        0.037037        0.2031433095238095        0        
C1        C        0.0625        0.12963        0.2031433095238095        0        
C2        C        0.09375        0.185185        0.2031433095238095        0        
C3        C        0.0625        0.203703        0.2031433095238095        0        
C4        C        0.09375        0.148148        0.2031433095238095        0        
C1        C        0.0625        0.24074099999999998        0.2031433095238095        0        
C2        C        0.09375        0.296297        0.2031433095238095        0        
C3        C        0.0625        0.314815        0.2031433095238095        0        
C4        C        0.09375        0.259259        0.2031433095238095        0        
C1        C        0.0625        0.351852        0.2031433095238095        0        
C2        C        0.09375        0.407408        0.2031433095238095        0        
C3        C        0.0625        0.42592500000000005        0.2031433095238095        0        
C4        C        0.09375        0.37037        0.2031433095238095        0        
C1        C        0.0625        0.46296300000000007        0.2031433095238095        0        
C2        C        0.09375        0.518519        0.2031433095238095        0        
C3        C        0.0625        0.537037        0.2031433095238095        0        
C4        C        0.09375        0.481481        0.2031433095238095        0        
C1        C        0.0625        0.574075        0.2031433095238095        0        
C2        C        0.09375        0.62963        0.2031433095238095        0        
C3        C        0.0625        0.648148        0.2031433095238095        0        
C4        C        0.09375        0.592592        0.2031433095238095        0        
C1        C        0.125        0.018519        0.2031433095238095        0        
C2        C        0.15625        0.074075        0.2031433095238095        0        
C3        C        0.125        0.092592        0.2031433095238095        0        
C4        C        0.15625        0.037037        0.2031433095238095        0        
C1        C        0.125        0.12963        0.2031433095238095        0        
C2        C        0.15625        0.185185        0.2031433095238095        0        
C3        C        0.125        0.203703        0.2031433095238095        0        
C4        C        0.15625        0.148148        0.2031433095238095        0        
C1        C        0.125        0.24074099999999998        0.2031433095238095        0        
C2        C        0.15625        0.296297        0.2031433095238095        0        
C3        C        0.125        0.314815        0.2031433095238095        0        
C4        C        0.15625        0.259259        0.2031433095238095        0        
C1        C        0.125        0.351852        0.2031433095238095        0        
C2        C        0.15625        0.407408        0.2031433095238095        0        
C3        C        0.125        0.42592500000000005        0.2031433095238095        0        
C4        C        0.15625        0.37037        0.2031433095238095        0        
C1        C        0.125        0.46296300000000007        0.2031433095238095        0        
C2        C        0.15625        0.518519        0.2031433095238095        0        
C3        C        0.125        0.537037        0.2031433095238095        0        
C4        C        0.15625        0.481481        0.2031433095238095        0        
C1        C        0.125        0.574075        0.2031433095238095        0        
C2        C        0.15625        0.62963        0.2031433095238095        0        
C3        C        0.125        0.648148        0.2031433095238095        0        
C4        C        0.15625        0.592592        0.2031433095238095        0        
C1        C        0.1875        0.018519        0.2031433095238095        0        
C2        C        0.21875        0.074075        0.2031433095238095        0        
C3        C        0.1875        0.092592        0.2031433095238095        0        
C4        C        0.21875        0.037037        0.2031433095238095        0        
C1        C        0.1875        0.12963        0.2031433095238095        0        
C2        C        0.21875        0.185185        0.2031433095238095        0        
C3        C        0.1875        0.203703        0.2031433095238095        0        
C4        C        0.21875        0.148148        0.2031433095238095        0        
C1        C        0.1875        0.24074099999999998        0.2031433095238095        0        
C2        C        0.21875        0.296297        0.2031433095238095        0        
C3        C        0.1875        0.314815        0.2031433095238095        0        
C4        C        0.21875        0.259259        0.2031433095238095        0        
C1        C        0.1875        0.351852        0.2031433095238095        0        
C2        C        0.21875        0.407408        0.2031433095238095        0        
C3        C        0.1875        0.42592500000000005        0.2031433095238095        0        
C4        C        0.21875        0.37037        0.2031433095238095        0        
C1        C        0.1875        0.46296300000000007        0.2031433095238095        0        
C2        C        0.21875        0.518519        0.2031433095238095        0        
C3        C        0.1875        0.537037        0.2031433095238095        0        
C4        C        0.21875        0.481481        0.2031433095238095        0        
C1        C        0.1875        0.574075        0.2031433095238095        0        
C2        C        0.21875        0.62963        0.2031433095238095        0        
C3        C        0.1875        0.648148        0.2031433095238095        0        
C4        C        0.21875        0.592592        0.2031433095238095        0        
C1        C        0.25        0.018519        0.2031433095238095        0        
C2        C        0.28125        0.074075        0.2031433095238095        0        
C3        C        0.25        0.092592        0.2031433095238095        0        
C4        C        0.28125        0.037037        0.2031433095238095        0        
C1        C        0.25        0.12963        0.2031433095238095        0        
C2        C        0.28125        0.185185        0.2031433095238095        0        
C3        C        0.25        0.203703        0.2031433095238095        0        
C4        C        0.28125        0.148148        0.2031433095238095        0        
C1        C        0.25        0.24074099999999998        0.2031433095238095        0        
C2        C        0.28125        0.296297        0.2031433095238095        0        
C3        C        0.25        0.314815        0.2031433095238095        0        
C4        C        0.28125        0.259259        0.2031433095238095        0        
C1        C        0.25        0.351852        0.2031433095238095        0        
C2        C        0.28125        0.407408        0.2031433095238095        0        
C3        C        0.25        0.42592500000000005        0.2031433095238095        0        
C4        C        0.28125        0.37037        0.2031433095238095        0        
C1        C        0.25        0.46296300000000007        0.2031433095238095        0        
C2        C        0.28125        0.518519        0.2031433095238095        0        
C3        C        0.25        0.537037        0.2031433095238095        0        
C4        C        0.28125        0.481481        0.2031433095238095        0        
C1        C        0.25        0.574075        0.2031433095238095        0        
C2        C        0.28125        0.62963        0.2031433095238095        0        
C3        C        0.25        0.648148        0.2031433095238095        0        
C4        C        0.28125        0.592592        0.2031433095238095        0        
C1        C        0.3125        0.018519        0.2031433095238095        0        
C2        C        0.34375        0.074075        0.2031433095238095        0        
C3        C        0.3125        0.092592        0.2031433095238095        0        
C4        C        0.34375        0.037037        0.2031433095238095        0        
C1        C        0.3125        0.12963        0.2031433095238095        0        
C2        C        0.34375        0.185185        0.2031433095238095        0        
C3        C        0.3125        0.203703        0.2031433095238095        0        
C4        C        0.34375        0.148148        0.2031433095238095        0        
C1        C        0.3125        0.24074099999999998        0.2031433095238095        0        
C2        C        0.34375        0.296297        0.2031433095238095        0        
C3        C        0.3125        0.314815        0.2031433095238095        0        
C4        C        0.34375        0.259259        0.2031433095238095        0        
C1        C        0.3125        0.351852        0.2031433095238095        0        
C2        C        0.34375        0.407408        0.2031433095238095        0        
C3        C        0.3125        0.42592500000000005        0.2031433095238095        0        
C4        C        0.34375        0.37037        0.2031433095238095        0        
C1        C        0.3125        0.46296300000000007        0.2031433095238095        0        
C2        C        0.34375        0.518519        0.2031433095238095        0        
C3        C        0.3125        0.537037        0.2031433095238095        0        
C4        C        0.34375        0.481481        0.2031433095238095        0        
C1        C        0.3125        0.574075        0.2031433095238095        0        
C2        C        0.34375        0.62963        0.2031433095238095        0        
C3        C        0.3125        0.648148        0.2031433095238095        0        
C4        C        0.34375        0.592592        0.2031433095238095        0        
C1        C        0.375        0.018519        0.2031433095238095        0        
C2        C        0.40625        0.074075        0.2031433095238095        0        
C3        C        0.375        0.092592        0.2031433095238095        0        
C4        C        0.40625        0.037037        0.2031433095238095        0        
C1        C        0.375        0.12963        0.2031433095238095        0        
C2        C        0.40625        0.185185        0.2031433095238095        0        
C3        C        0.375        0.203703        0.2031433095238095        0        
C4        C        0.40625        0.148148        0.2031433095238095        0        
C1        C        0.375        0.24074099999999998        0.2031433095238095        0        
C2        C        0.40625        0.296297        0.2031433095238095        0        
C3        C        0.375        0.314815        0.2031433095238095        0        
C4        C        0.40625        0.259259        0.2031433095238095        0        
C1        C        0.375        0.351852        0.2031433095238095        0        
C2        C        0.40625        0.407408        0.2031433095238095        0        
C3        C        0.375        0.42592500000000005        0.2031433095238095        0        
C4        C        0.40625        0.37037        0.2031433095238095        0        
C1        C        0.375        0.46296300000000007        0.2031433095238095        0        
C2        C        0.40625        0.518519        0.2031433095238095        0        
C3        C        0.375        0.537037        0.2031433095238095        0        
C4        C        0.40625        0.481481        0.2031433095238095        0        
C1        C        0.375        0.574075        0.2031433095238095        0        
C2        C        0.40625        0.62963        0.2031433095238095        0        
C3        C        0.375        0.648148        0.2031433095238095        0        
C4        C        0.40625        0.592592        0.2031433095238095        0        
C1        C        0.4375        0.018519        0.2031433095238095        0        
C2        C        0.46875        0.074075        0.2031433095238095        0        
C3        C        0.4375        0.092592        0.2031433095238095        0        
C4        C        0.46875        0.037037        0.2031433095238095        0        
C1        C        0.4375        0.12963        0.2031433095238095        0        
C2        C        0.46875        0.185185        0.2031433095238095        0        
C3        C        0.4375        0.203703        0.2031433095238095        0        
C4        C        0.46875        0.148148        0.2031433095238095        0        
C1        C        0.4375        0.24074099999999998        0.2031433095238095        0        
C2        C        0.46875        0.296297        0.2031433095238095        0        
C3        C        0.4375        0.314815        0.2031433095238095        0        
C4        C        0.46875        0.259259        0.2031433095238095        0        
C1        C        0.4375        0.351852        0.2031433095238095        0        
C2        C        0.46875        0.407408        0.2031433095238095        0        
C3        C        0.4375        0.42592500000000005        0.2031433095238095        0        
C4        C        0.46875        0.37037        0.2031433095238095        0        
C1        C        0.4375        0.46296300000000007        0.2031433095238095        0        
C2        C        0.46875        0.518519        0.2031433095238095        0        
C3        C        0.4375        0.537037        0.2031433095238095        0        
C4        C        0.46875        0.481481        0.2031433095238095        0        
C1        C        0.4375        0.574075        0.2031433095238095        0        
C2        C        0.46875        0.62963        0.2031433095238095        0        
C3        C        0.4375        0.648148        0.2031433095238095        0        
C4        C        0.46875        0.592592        0.2031433095238095        0        
C1        C        0.5        0.018519        0.2031433095238095        0        
C2        C        0.53125        0.074075        0.2031433095238095        0        
C3        C        0.5        0.092592        0.2031433095238095        0        
C4        C        0.53125        0.037037        0.2031433095238095        0        
C1        C        0.5        0.12963        0.2031433095238095        0        
C2        C        0.53125        0.185185        0.2031433095238095        0        
C3        C        0.5        0.203703        0.2031433095238095        0        
C4        C        0.53125        0.148148        0.2031433095238095        0        
C1        C        0.5        0.24074099999999998        0.2031433095238095        0        
C2        C        0.53125        0.296297        0.2031433095238095        0        
C3        C        0.5        0.314815        0.2031433095238095        0        
C4        C        0.53125        0.259259        0.2031433095238095        0        
C1        C        0.5        0.351852        0.2031433095238095        0        
C2        C        0.53125        0.407408        0.2031433095238095        0        
C3        C        0.5        0.42592500000000005        0.2031433095238095        0        
C4        C        0.53125        0.37037        0.2031433095238095        0        
C1        C        0.5        0.46296300000000007        0.2031433095238095        0        
C2        C        0.53125        0.518519        0.2031433095238095        0        
C3        C        0.5        0.537037        0.2031433095238095        0        
C4        C        0.53125        0.481481        0.2031433095238095        0        
C1        C        0.5        0.574075        0.2031433095238095        0        
C2        C        0.53125        0.62963        0.2031433095238095        0        
C3        C        0.5        0.648148        0.2031433095238095        0        
C4        C        0.53125        0.592592        0.2031433095238095        0        
C1        C        0.5625        0.018519        0.2031433095238095        0        
C2        C        0.59375        0.074075        0.2031433095238095        0        
C3        C        0.5625        0.092592        0.2031433095238095        0        
C4        C        0.59375        0.037037        0.2031433095238095        0        
C1        C        0.5625        0.12963        0.2031433095238095        0        
C2        C        0.59375        0.185185        0.2031433095238095        0        
C3        C        0.5625        0.203703        0.2031433095238095        0        
C4        C        0.59375        0.148148        0.2031433095238095        0        
C1        C        0.5625        0.24074099999999998        0.2031433095238095        0        
C2        C        0.59375        0.296297        0.2031433095238095        0        
C3        C        0.5625        0.314815        0.2031433095238095        0        
C4        C        0.59375        0.259259        0.2031433095238095        0        
C1        C        0.5625        0.351852        0.2031433095238095        0        
C2        C        0.59375        0.407408        0.2031433095238095        0        
C3        C        0.5625        0.42592500000000005        0.2031433095238095        0        
C4        C        0.59375        0.37037        0.2031433095238095        0        
C1        C        0.5625        0.46296300000000007        0.2031433095238095        0        
C2        C        0.59375        0.518519        0.2031433095238095        0        
C3        C        0.5625        0.537037        0.2031433095238095        0        
C4        C        0.59375        0.481481        0.2031433095238095        0        
C1        C        0.5625        0.574075        0.2031433095238095        0        
C2        C        0.59375        0.62963        0.2031433095238095        0        
C3        C        0.5625        0.648148        0.2031433095238095        0        
C4        C        0.59375        0.592592        0.2031433095238095        0        
C1        C        0.625        0.018519        0.2031433095238095        0        
C2        C        0.65625        0.074075        0.2031433095238095        0        
C3        C        0.625        0.092592        0.2031433095238095        0        
C4        C        0.65625        0.037037        0.2031433095238095        0        
C1        C        0.625        0.12963        0.2031433095238095        0        
C2        C        0.65625        0.185185        0.2031433095238095        0        
C3        C        0.625        0.203703        0.2031433095238095        0        
C4        C        0.65625        0.148148        0.2031433095238095        0        
C1        C        0.625        0.24074099999999998        0.2031433095238095        0        
C2        C        0.65625        0.296297        0.2031433095238095        0        
C3        C        0.625        0.314815        0.2031433095238095        0        
C4        C        0.65625        0.259259        0.2031433095238095        0        
C1        C        0.625        0.351852        0.2031433095238095        0        
C2        C        0.65625        0.407408        0.2031433095238095        0        
C3        C        0.625        0.42592500000000005        0.2031433095238095        0        
C4        C        0.65625        0.37037        0.2031433095238095        0        
C1        C        0.625        0.46296300000000007        0.2031433095238095        0        
C2        C        0.65625        0.518519        0.2031433095238095        0        
C3        C        0.625        0.537037        0.2031433095238095        0        
C4        C        0.65625        0.481481        0.2031433095238095        0        
C1        C        0.625        0.574075        0.2031433095238095        0        
C2        C        0.65625        0.62963        0.2031433095238095        0        
C3        C        0.625        0.648148        0.2031433095238095        0        
C4        C        0.65625        0.592592        0.2031433095238095        0        
C1        C        0.6875        0.018519        0.2031433095238095        0        
C2        C        0.71875        0.074075        0.2031433095238095        0        
C3        C        0.6875        0.092592        0.2031433095238095        0        
C4        C        0.71875        0.037037        0.2031433095238095        0        
C1        C        0.6875        0.12963        0.2031433095238095        0        
C2        C        0.71875        0.185185        0.2031433095238095        0        
C3        C        0.6875        0.203703        0.2031433095238095        0        
C4        C        0.71875        0.148148        0.2031433095238095        0        
C1        C        0.6875        0.24074099999999998        0.2031433095238095        0        
C2        C        0.71875        0.296297        0.2031433095238095        0        
C3        C        0.6875        0.314815        0.2031433095238095        0        
C4        C        0.71875        0.259259        0.2031433095238095        0        
C1        C        0.6875        0.351852        0.2031433095238095        0        
C2        C        0.71875        0.407408        0.2031433095238095        0        
C3        C        0.6875        0.42592500000000005        0.2031433095238095        0        
C4        C        0.71875        0.37037        0.2031433095238095        0        
C1        C        0.6875        0.46296300000000007        0.2031433095238095        0        
C2        C        0.71875        0.518519        0.2031433095238095        0        
C3        C        0.6875        0.537037        0.2031433095238095        0        
C4        C        0.71875        0.481481        0.2031433095238095        0        
C1        C        0.6875        0.574075        0.2031433095238095        0        
C2        C        0.71875        0.62963        0.2031433095238095        0        
C3        C        0.6875        0.648148        0.2031433095238095        0        
C4        C        0.71875        0.592592        0.2031433095238095        0        
C1        C        0.75        0.018519        0.2031433095238095        0        
C2        C        0.78125        0.074075        0.2031433095238095        0        
C3        C        0.75        0.092592        0.2031433095238095        0        
C4        C        0.78125        0.037037        0.2031433095238095        0        
C1        C        0.75        0.12963        0.2031433095238095        0        
C2        C        0.78125        0.185185        0.2031433095238095        0        
C3        C        0.75        0.203703        0.2031433095238095        0        
C4        C        0.78125        0.148148        0.2031433095238095        0        
C1        C        0.75        0.24074099999999998        0.2031433095238095        0        
C2        C        0.78125        0.296297        0.2031433095238095        0        
C3        C        0.75        0.314815        0.2031433095238095        0        
C4        C        0.78125        0.259259        0.2031433095238095        0        
C1        C        0.75        0.351852        0.2031433095238095        0        
C2        C        0.78125        0.407408        0.2031433095238095        0        
C3        C        0.75        0.42592500000000005        0.2031433095238095        0        
C4        C        0.78125        0.37037        0.2031433095238095        0        
C1        C        0.75        0.46296300000000007        0.2031433095238095        0        
C2        C        0.78125        0.518519        0.2031433095238095        0        
C3        C        0.75        0.537037        0.2031433095238095        0        
C4        C        0.78125        0.481481        0.2031433095238095        0        
C1        C        0.75        0.574075        0.2031433095238095        0        
C2        C        0.78125        0.62963        0.2031433095238095        0        
C3        C        0.75        0.648148        0.2031433095238095        0        
C4        C        0.78125        0.592592        0.2031433095238095        0        
C1        C        0.8125        0.018519        0.2031433095238095        0        
C2        C        0.84375        0.074075        0.2031433095238095        0        
C3        C        0.8125        0.092592        0.2031433095238095        0        
C4        C        0.84375        0.037037        0.2031433095238095        0        
C1        C        0.8125        0.12963        0.2031433095238095        0        
C2        C        0.84375        0.185185        0.2031433095238095        0        
C3        C        0.8125        0.203703        0.2031433095238095        0        
C4        C        0.84375        0.148148        0.2031433095238095        0        
C1        C        0.8125        0.24074099999999998        0.2031433095238095        0        
C2        C        0.84375        0.296297        0.2031433095238095        0        
C3        C        0.8125        0.314815        0.2031433095238095        0        
C4        C        0.84375        0.259259        0.2031433095238095        0        
C1        C        0.8125        0.351852        0.2031433095238095        0        
C2        C        0.84375        0.407408        0.2031433095238095        0        
C3        C        0.8125        0.42592500000000005        0.2031433095238095        0        
C4        C        0.84375        0.37037        0.2031433095238095        0        
C1        C        0.8125        0.46296300000000007        0.2031433095238095        0        
C2        C        0.84375        0.518519        0.2031433095238095        0        
C3        C        0.8125        0.537037        0.2031433095238095        0        
C4        C        0.84375        0.481481        0.2031433095238095        0        
C1        C        0.8125        0.574075        0.2031433095238095        0        
C2        C        0.84375        0.62963        0.2031433095238095        0        
C3        C        0.8125        0.648148        0.2031433095238095        0        
C4        C        0.84375        0.592592        0.2031433095238095        0        
C1        C        0.875        0.018519        0.2031433095238095        0        
C2        C        0.9062500000000001        0.074075        0.2031433095238095        0        
C3        C        0.875        0.092592        0.2031433095238095        0        
C4        C        0.9062500000000001        0.037037        0.2031433095238095        0        
C1        C        0.875        0.12963        0.2031433095238095        0        
C2        C        0.9062500000000001        0.185185        0.2031433095238095        0        
C3        C        0.875        0.203703        0.2031433095238095        0        
C4        C        0.9062500000000001        0.148148        0.2031433095238095        0        
C1        C        0.875        0.24074099999999998        0.2031433095238095        0        
C2        C        0.9062500000000001        0.296297        0.2031433095238095        0        
C3        C        0.875        0.314815        0.2031433095238095        0        
C4        C        0.9062500000000001        0.259259        0.2031433095238095        0        
C1        C        0.875        0.351852        0.2031433095238095        0        
C2        C        0.9062500000000001        0.407408        0.2031433095238095        0        
C3        C        0.875        0.42592500000000005        0.2031433095238095        0        
C4        C        0.9062500000000001        0.37037        0.2031433095238095        0        
C1        C        0.875        0.46296300000000007        0.2031433095238095        0        
C2        C        0.9062500000000001        0.518519        0.2031433095238095        0        
C3        C        0.875        0.537037        0.2031433095238095        0        
C4        C        0.9062500000000001        0.481481        0.2031433095238095        0        
C1        C        0.875        0.574075        0.2031433095238095        0        
C2        C        0.9062500000000001        0.62963        0.2031433095238095        0        
C3        C        0.875        0.648148        0.2031433095238095        0        
C4        C        0.9062500000000001        0.592592        0.2031433095238095        0        
C1        C        0.9375        0.018519        0.2031433095238095        0        
C2        C        0.9687500000000001        0.074075        0.2031433095238095        0        
C3        C        0.9375        0.092592        0.2031433095238095        0        
C4        C        0.9687500000000001        0.037037        0.2031433095238095        0        
C1        C        0.9375        0.12963        0.2031433095238095        0        
C2        C        0.9687500000000001        0.185185        0.2031433095238095        0        
C3        C        0.9375        0.203703        0.2031433095238095        0        
C4        C        0.9687500000000001        0.148148        0.2031433095238095        0        
C1        C        0.9375        0.24074099999999998        0.2031433095238095        0        
C2        C        0.9687500000000001        0.296297        0.2031433095238095        0        
C3        C        0.9375        0.314815        0.2031433095238095        0        
C4        C        0.9687500000000001        0.259259        0.2031433095238095        0        
C1        C        0.9375        0.351852        0.2031433095238095        0        
C2        C        0.9687500000000001        0.407408        0.2031433095238095        0        
C3        C        0.9375        0.42592500000000005        0.2031433095238095        0        
C4        C        0.9687500000000001        0.37037        0.2031433095238095        0        
C1        C        0.9375        0.46296300000000007        0.2031433095238095        0        
C2        C        0.9687500000000001        0.518519        0.2031433095238095        0        
C3        C        0.9375        0.537037        0.2031433095238095        0        
C4        C        0.9687500000000001        0.481481        0.2031433095238095        0        
C1        C        0.9375        0.574075        0.2031433095238095        0        
C2        C        0.9687500000000001        0.62963        0.2031433095238095        0        
C3        C        0.9375        0.648148        0.2031433095238095        0        
C4        C        0.9687500000000001        0.592592        0.2031433095238095        0        
C1        C        0.0        0.685186        0.2031433095238095        0        
C1        C        0.0625        0.685186        0.2031433095238095        0        
C1        C        0.125        0.685186        0.2031433095238095        0        
C1        C        0.1875        0.685186        0.2031433095238095        0        
C1        C        0.25        0.685186        0.2031433095238095        0        
C1        C        0.3125        0.685186        0.2031433095238095        0        
C1        C        0.375        0.685186        0.2031433095238095        0        
C1        C        0.4375        0.685186        0.2031433095238095        0        
C1        C        0.5        0.685186        0.2031433095238095        0        
C1        C        0.5625        0.685186        0.2031433095238095        0        
C1        C        0.625        0.685186        0.2031433095238095        0        
C1        C        0.6875        0.685186        0.2031433095238095        0        
C1        C        0.75        0.685186        0.2031433095238095        0        
C1        C        0.8125        0.685186        0.2031433095238095        0        
C1        C        0.875        0.685186        0.2031433095238095        0        
C1        C        0.9375        0.685186        0.2031433095238095        0        
C2        C        0.03125        0.740741        0.2031433095238095        0        
C2        C        0.09375        0.740741        0.2031433095238095        0        
C2        C        0.15625        0.740741        0.2031433095238095        0        
C2        C        0.21875        0.740741        0.2031433095238095        0        
C2        C        0.28125        0.740741        0.2031433095238095        0        
C2        C        0.34375        0.740741        0.2031433095238095        0        
C2        C        0.40625        0.740741        0.2031433095238095        0        
C2        C        0.46875        0.740741        0.2031433095238095        0        
C2        C        0.53125        0.740741        0.2031433095238095        0        
C2        C        0.59375        0.740741        0.2031433095238095        0        
C2        C        0.65625        0.740741        0.2031433095238095        0        
C2        C        0.71875        0.740741        0.2031433095238095        0        
C2        C        0.78125        0.740741        0.2031433095238095        0        
C2        C        0.84375        0.740741        0.2031433095238095        0        
C2        C        0.9062500000000001        0.740741        0.2031433095238095        0        
C2        C        0.9687500000000001        0.740741        0.2031433095238095        0        
C3        C        0.0        0.759259        0.2031433095238095        0        
C3        C        0.0625        0.759259        0.2031433095238095        0        
C3        C        0.125        0.759259        0.2031433095238095        0        
C3        C        0.1875        0.759259        0.2031433095238095        0        
C3        C        0.25        0.759259        0.2031433095238095        0        
C3        C        0.3125        0.759259        0.2031433095238095        0        
C3        C        0.375        0.759259        0.2031433095238095        0        
C3        C        0.4375        0.759259        0.2031433095238095        0        
C3        C        0.5        0.759259        0.2031433095238095        0        
C3        C        0.5625        0.759259        0.2031433095238095        0        
C3        C        0.625        0.759259        0.2031433095238095        0        
C3        C        0.6875        0.759259        0.2031433095238095        0        
C3        C        0.75        0.759259        0.2031433095238095        0        
C3        C        0.8125        0.759259        0.2031433095238095        0        
C3        C        0.875        0.759259        0.2031433095238095        0        
C3        C        0.9375        0.759259        0.2031433095238095        0        
C4        C        0.03125        0.703703        0.2031433095238095        0        
C4        C        0.09375        0.703703        0.2031433095238095        0        
C4        C        0.15625        0.703703        0.2031433095238095        0        
C4        C        0.21875        0.703703        0.2031433095238095        0        
C4        C        0.28125        0.703703        0.2031433095238095        0        
C4        C        0.34375        0.703703        0.2031433095238095        0        
C4        C        0.40625        0.703703        0.2031433095238095        0        
C4        C        0.46875        0.703703        0.2031433095238095        0        
C4        C        0.53125        0.703703        0.2031433095238095        0        
C4        C        0.59375        0.703703        0.2031433095238095        0        
C4        C        0.65625        0.703703        0.2031433095238095        0        
C4        C        0.71875        0.703703        0.2031433095238095        0        
C4        C        0.78125        0.703703        0.2031433095238095        0        
C4        C        0.84375        0.703703        0.2031433095238095        0        
C4        C        0.9062500000000001        0.703703        0.2031433095238095        0        
C4        C        0.9687500000000001        0.703703        0.2031433095238095        0        
C1        C        0.0        0.796297        0.2031433095238095        0        
C1        C        0.0625        0.796297        0.2031433095238095        0        
C1        C        0.125        0.796297        0.2031433095238095        0        
C1        C        0.1875        0.796297        0.2031433095238095        0        
C1        C        0.25        0.796297        0.2031433095238095        0        
C1        C        0.3125        0.796297        0.2031433095238095        0        
C1        C        0.375        0.796297        0.2031433095238095        0        
C1        C        0.4375        0.796297        0.2031433095238095        0        
C1        C        0.5        0.796297        0.2031433095238095        0        
C1        C        0.5625        0.796297        0.2031433095238095        0        
C1        C        0.625        0.796297        0.2031433095238095        0        
C1        C        0.6875        0.796297        0.2031433095238095        0        
C1        C        0.75        0.796297        0.2031433095238095        0        
C1        C        0.8125        0.796297        0.2031433095238095        0        
C1        C        0.875        0.796297        0.2031433095238095        0        
C1        C        0.9375        0.796297        0.2031433095238095        0        
C2        C        0.03125        0.851852        0.2031433095238095        0        
C2        C        0.09375        0.851852        0.2031433095238095        0        
C2        C        0.15625        0.851852        0.2031433095238095        0        
C2        C        0.21875        0.851852        0.2031433095238095        0        
C2        C        0.28125        0.851852        0.2031433095238095        0        
C2        C        0.34375        0.851852        0.2031433095238095        0        
C2        C        0.40625        0.851852        0.2031433095238095        0        
C2        C        0.46875        0.851852        0.2031433095238095        0        
C2        C        0.53125        0.851852        0.2031433095238095        0        
C2        C        0.59375        0.851852        0.2031433095238095        0        
C2        C        0.65625        0.851852        0.2031433095238095        0        
C2        C        0.71875        0.851852        0.2031433095238095        0        
C2        C        0.78125        0.851852        0.2031433095238095        0        
C2        C        0.84375        0.851852        0.2031433095238095        0        
C2        C        0.9062500000000001        0.851852        0.2031433095238095        0        
C2        C        0.9687500000000001        0.851852        0.2031433095238095        0        
C3        C        0.0        0.87037        0.2031433095238095        0        
C3        C        0.0625        0.87037        0.2031433095238095        0        
C3        C        0.125        0.87037        0.2031433095238095        0        
C3        C        0.1875        0.87037        0.2031433095238095        0        
C3        C        0.25        0.87037        0.2031433095238095        0        
C3        C        0.3125        0.87037        0.2031433095238095        0        
C3        C        0.375        0.87037        0.2031433095238095        0        
C3        C        0.4375        0.87037        0.2031433095238095        0        
C3        C        0.5        0.87037        0.2031433095238095        0        
C3        C        0.5625        0.87037        0.2031433095238095        0        
C3        C        0.625        0.87037        0.2031433095238095        0        
C3        C        0.6875        0.87037        0.2031433095238095        0        
C3        C        0.75        0.87037        0.2031433095238095        0        
C3        C        0.8125        0.87037        0.2031433095238095        0        
C3        C        0.875        0.87037        0.2031433095238095        0        
C3        C        0.9375        0.87037        0.2031433095238095        0        
C4        C        0.03125        0.814814        0.2031433095238095        0        
C4        C        0.09375        0.814814        0.2031433095238095        0        
C4        C        0.15625        0.814814        0.2031433095238095        0        
C4        C        0.21875        0.814814        0.2031433095238095        0        
C4        C        0.28125        0.814814        0.2031433095238095        0        
C4        C        0.34375        0.814814        0.2031433095238095        0        
C4        C        0.40625        0.814814        0.2031433095238095        0        
C4        C        0.46875        0.814814        0.2031433095238095        0        
C4        C        0.53125        0.814814        0.2031433095238095        0        
C4        C        0.59375        0.814814        0.2031433095238095        0        
C4        C        0.65625        0.814814        0.2031433095238095        0        
C4        C        0.71875        0.814814        0.2031433095238095        0        
C4        C        0.78125        0.814814        0.2031433095238095        0        
C4        C        0.84375        0.814814        0.2031433095238095        0        
C4        C        0.9062500000000001        0.814814        0.2031433095238095        0        
C4        C        0.9687500000000001        0.814814        0.2031433095238095        0        
C1        C        0.0        0.907408        0.2031433095238095        0        
C1        C        0.0625        0.907408        0.2031433095238095        0        
C1        C        0.125        0.907408        0.2031433095238095        0        
C1        C        0.1875        0.907408        0.2031433095238095        0        
C1        C        0.25        0.907408        0.2031433095238095        0        
C1        C        0.3125        0.907408        0.2031433095238095        0        
C1        C        0.375        0.907408        0.2031433095238095        0        
C1        C        0.4375        0.907408        0.2031433095238095        0        
C1        C        0.5        0.907408        0.2031433095238095        0        
C1        C        0.5625        0.907408        0.2031433095238095        0        
C1        C        0.625        0.907408        0.2031433095238095        0        
C1        C        0.6875        0.907408        0.2031433095238095        0        
C1        C        0.75        0.907408        0.2031433095238095        0        
C1        C        0.8125        0.907408        0.2031433095238095        0        
C1        C        0.875        0.907408        0.2031433095238095        0        
C1        C        0.9375        0.907408        0.2031433095238095        0        
C2        C        0.03125        0.962963        0.2031433095238095        0        
C2        C        0.09375        0.962963        0.2031433095238095        0        
C2        C        0.15625        0.962963        0.2031433095238095        0        
C2        C        0.21875        0.962963        0.2031433095238095        0        
C2        C        0.28125        0.962963        0.2031433095238095        0        
C2        C        0.34375        0.962963        0.2031433095238095        0        
C2        C        0.40625        0.962963        0.2031433095238095        0        
C2        C        0.46875        0.962963        0.2031433095238095        0        
C2        C        0.53125        0.962963        0.2031433095238095        0        
C2        C        0.59375        0.962963        0.2031433095238095        0        
C2        C        0.65625        0.962963        0.2031433095238095        0        
C2        C        0.71875        0.962963        0.2031433095238095        0        
C2        C        0.78125        0.962963        0.2031433095238095        0        
C2        C        0.84375        0.962963        0.2031433095238095        0        
C2        C        0.9062500000000001        0.962963        0.2031433095238095        0        
C2        C        0.9687500000000001        0.962963        0.2031433095238095        0        
C3        C        0.0        0.9814809999999999        0.2031433095238095        0        
C3        C        0.0625        0.9814809999999999        0.2031433095238095        0        
C3        C        0.125        0.9814809999999999        0.2031433095238095        0        
C3        C        0.1875        0.9814809999999999        0.2031433095238095        0        
C3        C        0.25        0.9814809999999999        0.2031433095238095        0        
C3        C        0.3125        0.9814809999999999        0.2031433095238095        0        
C3        C        0.375        0.9814809999999999        0.2031433095238095        0        
C3        C        0.4375        0.9814809999999999        0.2031433095238095        0        
C3        C        0.5        0.9814809999999999        0.2031433095238095        0        
C3        C        0.5625        0.9814809999999999        0.2031433095238095        0        
C3        C        0.625        0.9814809999999999        0.2031433095238095        0        
C3        C        0.6875        0.9814809999999999        0.2031433095238095        0        
C3        C        0.75        0.9814809999999999        0.2031433095238095        0        
C3        C        0.8125        0.9814809999999999        0.2031433095238095        0        
C3        C        0.875        0.9814809999999999        0.2031433095238095        0        
C3        C        0.9375        0.9814809999999999        0.2031433095238095        0        
C4        C        0.03125        0.925925        0.2031433095238095        0        
C4        C        0.09375        0.925925        0.2031433095238095        0        
C4        C        0.15625        0.925925        0.2031433095238095        0        
C4        C        0.21875        0.925925        0.2031433095238095        0        
C4        C        0.28125        0.925925        0.2031433095238095        0        
C4        C        0.34375        0.925925        0.2031433095238095        0        
C4        C        0.40625        0.925925        0.2031433095238095        0        
C4        C        0.46875        0.925925        0.2031433095238095        0        
C4        C        0.53125        0.925925        0.2031433095238095        0        
C4        C        0.59375        0.925925        0.2031433095238095        0        
C4        C        0.65625        0.925925        0.2031433095238095        0        
C4        C        0.71875        0.925925        0.2031433095238095        0        
C4        C        0.78125        0.925925        0.2031433095238095        0        
C4        C        0.84375        0.925925        0.2031433095238095        0        
C4        C        0.9062500000000001        0.925925        0.2031433095238095        0        
C4        C        0.9687500000000001        0.925925        0.2031433095238095        0        
C_FG        C        0.0        0.018519        0.33607930952380954        0.2        
C2        C        0.03125        0.074075        0.33607930952380954        0        
C3        C        0.0        0.092592        0.33607930952380954        0        
C4        C        0.03125        0.037037        0.33607930952380954        0        
C1        C        0.0        0.12963        0.33607930952380954        0        
C2        C        0.03125        0.185185        0.33607930952380954        0        
C_FG        C        0.0        0.203703        0.33607930952380954        0.2        
C4        C        0.03125        0.148148        0.33607930952380954        0        
C1        C        0.0        0.24074099999999998        0.33607930952380954        0        
C2        C        0.03125        0.296297        0.33607930952380954        0        
C3        C        0.0        0.314815        0.33607930952380954        0        
C4        C        0.03125        0.259259        0.33607930952380954        0        
C_FG        C        0.0        0.351852        0.33607930952380954        0.2        
C2        C        0.03125        0.407408        0.33607930952380954        0        
C3        C        0.0        0.42592500000000005        0.33607930952380954        0        
C4        C        0.03125        0.37037        0.33607930952380954        0        
C1        C        0.0        0.46296300000000007        0.33607930952380954        0        
C2        C        0.03125        0.518519        0.33607930952380954        0        
C_FG        C        0.0        0.537037        0.33607930952380954        0.2        
C4        C        0.03125        0.481481        0.33607930952380954        0        
C1        C        0.0        0.574075        0.33607930952380954        0        
C2        C        0.03125        0.62963        0.33607930952380954        0        
C3        C        0.0        0.648148        0.33607930952380954        0        
C4        C        0.03125        0.592592        0.33607930952380954        0        
C1        C        0.0625        0.018519        0.33607930952380954        0        
C2        C        0.09375        0.074075        0.33607930952380954        0        
C3        C        0.0625        0.092592        0.33607930952380954        0        
C4        C        0.09375        0.037037        0.33607930952380954        0        
C1        C        0.0625        0.12963        0.33607930952380954        0        
C2        C        0.09375        0.185185        0.33607930952380954        0        
C3        C        0.0625        0.203703        0.33607930952380954        0        
C4        C        0.09375        0.148148        0.33607930952380954        0        
C1        C        0.0625        0.24074099999999998        0.33607930952380954        0        
C2        C        0.09375        0.296297        0.33607930952380954        0        
C3        C        0.0625        0.314815        0.33607930952380954        0        
C4        C        0.09375        0.259259        0.33607930952380954        0        
C1        C        0.0625        0.351852        0.33607930952380954        0        
C2        C        0.09375        0.407408        0.33607930952380954        0        
C3        C        0.0625        0.42592500000000005        0.33607930952380954        0        
C4        C        0.09375        0.37037        0.33607930952380954        0        
C1        C        0.0625        0.46296300000000007        0.33607930952380954        0        
C2        C        0.09375        0.518519        0.33607930952380954        0        
C3        C        0.0625        0.537037        0.33607930952380954        0        
C4        C        0.09375        0.481481        0.33607930952380954        0        
C1        C        0.0625        0.574075        0.33607930952380954        0        
C2        C        0.09375        0.62963        0.33607930952380954        0        
C3        C        0.0625        0.648148        0.33607930952380954        0        
C4        C        0.09375        0.592592        0.33607930952380954        0        
C_FG        C        0.125        0.018519        0.33607930952380954        0.2        
C2        C        0.15625        0.074075        0.33607930952380954        0        
C3        C        0.125        0.092592        0.33607930952380954        0        
C4        C        0.15625        0.037037        0.33607930952380954        0        
C1        C        0.125        0.12963        0.33607930952380954        0        
C2        C        0.15625        0.185185        0.33607930952380954        0        
C_FG        C        0.125        0.203703        0.33607930952380954        0.2        
C4        C        0.15625        0.148148        0.33607930952380954        0        
C1        C        0.125        0.24074099999999998        0.33607930952380954        0        
C2        C        0.15625        0.296297        0.33607930952380954        0        
C3        C        0.125        0.314815        0.33607930952380954        0        
C4        C        0.15625        0.259259        0.33607930952380954        0        
C_FG        C        0.125        0.351852        0.33607930952380954        0.2        
C2        C        0.15625        0.407408        0.33607930952380954        0        
C3        C        0.125        0.42592500000000005        0.33607930952380954        0        
C4        C        0.15625        0.37037        0.33607930952380954        0        
C1        C        0.125        0.46296300000000007        0.33607930952380954        0        
C2        C        0.15625        0.518519        0.33607930952380954        0        
C_FG        C        0.125        0.537037        0.33607930952380954        0.2        
C4        C        0.15625        0.481481        0.33607930952380954        0        
C1        C        0.125        0.574075        0.33607930952380954        0        
C2        C        0.15625        0.62963        0.33607930952380954        0        
C3        C        0.125        0.648148        0.33607930952380954        0        
C4        C        0.15625        0.592592        0.33607930952380954        0        
C1        C        0.1875        0.018519        0.33607930952380954        0        
C2        C        0.21875        0.074075        0.33607930952380954        0        
C3        C        0.1875        0.092592        0.33607930952380954        0        
C4        C        0.21875        0.037037        0.33607930952380954        0        
C1        C        0.1875        0.12963        0.33607930952380954        0        
C2        C        0.21875        0.185185        0.33607930952380954        0        
C3        C        0.1875        0.203703        0.33607930952380954        0        
C4        C        0.21875        0.148148        0.33607930952380954        0        
C1        C        0.1875        0.24074099999999998        0.33607930952380954        0        
C2        C        0.21875        0.296297        0.33607930952380954        0        
C3        C        0.1875        0.314815        0.33607930952380954        0        
C4        C        0.21875        0.259259        0.33607930952380954        0        
C1        C        0.1875        0.351852        0.33607930952380954        0        
C2        C        0.21875        0.407408        0.33607930952380954        0        
C3        C        0.1875        0.42592500000000005        0.33607930952380954        0        
C4        C        0.21875        0.37037        0.33607930952380954        0        
C1        C        0.1875        0.46296300000000007        0.33607930952380954        0        
C2        C        0.21875        0.518519        0.33607930952380954        0        
C3        C        0.1875        0.537037        0.33607930952380954        0        
C4        C        0.21875        0.481481        0.33607930952380954        0        
C1        C        0.1875        0.574075        0.33607930952380954        0        
C2        C        0.21875        0.62963        0.33607930952380954        0        
C3        C        0.1875        0.648148        0.33607930952380954        0        
C4        C        0.21875        0.592592        0.33607930952380954        0        
C_FG        C        0.25        0.018519        0.33607930952380954        0.2        
C2        C        0.28125        0.074075        0.33607930952380954        0        
C3        C        0.25        0.092592        0.33607930952380954        0        
C4        C        0.28125        0.037037        0.33607930952380954        0        
C1        C        0.25        0.12963        0.33607930952380954        0        
C2        C        0.28125        0.185185        0.33607930952380954        0        
C_FG        C        0.25        0.203703        0.33607930952380954        0.2        
C4        C        0.28125        0.148148        0.33607930952380954        0        
C1        C        0.25        0.24074099999999998        0.33607930952380954        0        
C2        C        0.28125        0.296297        0.33607930952380954        0        
C3        C        0.25        0.314815        0.33607930952380954        0        
C4        C        0.28125        0.259259        0.33607930952380954        0        
C_FG        C        0.25        0.351852        0.33607930952380954        0.2        
C2        C        0.28125        0.407408        0.33607930952380954        0        
C3        C        0.25        0.42592500000000005        0.33607930952380954        0        
C4        C        0.28125        0.37037        0.33607930952380954        0        
C1        C        0.25        0.46296300000000007        0.33607930952380954        0        
C2        C        0.28125        0.518519        0.33607930952380954        0        
C_FG        C        0.25        0.537037        0.33607930952380954        0.2        
C4        C        0.28125        0.481481        0.33607930952380954        0        
C1        C        0.25        0.574075        0.33607930952380954        0        
C2        C        0.28125        0.62963        0.33607930952380954        0        
C3        C        0.25        0.648148        0.33607930952380954        0        
C4        C        0.28125        0.592592        0.33607930952380954        0        
C1        C        0.3125        0.018519        0.33607930952380954        0        
C2        C        0.34375        0.074075        0.33607930952380954        0        
C3        C        0.3125        0.092592        0.33607930952380954        0        
C4        C        0.34375        0.037037        0.33607930952380954        0        
C1        C        0.3125        0.12963        0.33607930952380954        0        
C2        C        0.34375        0.185185        0.33607930952380954        0        
C3        C        0.3125        0.203703        0.33607930952380954        0        
C4        C        0.34375        0.148148        0.33607930952380954        0        
C1        C        0.3125        0.24074099999999998        0.33607930952380954        0        
C2        C        0.34375        0.296297        0.33607930952380954        0        
C3        C        0.3125        0.314815        0.33607930952380954        0        
C4        C        0.34375        0.259259        0.33607930952380954        0        
C1        C        0.3125        0.351852        0.33607930952380954        0        
C2        C        0.34375        0.407408        0.33607930952380954        0        
C3        C        0.3125        0.42592500000000005        0.33607930952380954        0        
C4        C        0.34375        0.37037        0.33607930952380954        0        
C1        C        0.3125        0.46296300000000007        0.33607930952380954        0        
C2        C        0.34375        0.518519        0.33607930952380954        0        
C3        C        0.3125        0.537037        0.33607930952380954        0        
C4        C        0.34375        0.481481        0.33607930952380954        0        
C1        C        0.3125        0.574075        0.33607930952380954        0        
C2        C        0.34375        0.62963        0.33607930952380954        0        
C3        C        0.3125        0.648148        0.33607930952380954        0        
C4        C        0.34375        0.592592        0.33607930952380954        0        
C_FG        C        0.375        0.018519        0.33607930952380954        0.2        
C2        C        0.40625        0.074075        0.33607930952380954        0        
C3        C        0.375        0.092592        0.33607930952380954        0        
C4        C        0.40625        0.037037        0.33607930952380954        0        
C1        C        0.375        0.12963        0.33607930952380954        0        
C2        C        0.40625        0.185185        0.33607930952380954        0        
C_FG        C        0.375        0.203703        0.33607930952380954        0.2        
C4        C        0.40625        0.148148        0.33607930952380954        0        
C1        C        0.375        0.24074099999999998        0.33607930952380954        0        
C2        C        0.40625        0.296297        0.33607930952380954        0        
C3        C        0.375        0.314815        0.33607930952380954        0        
C4        C        0.40625        0.259259        0.33607930952380954        0        
C_FG        C        0.375        0.351852        0.33607930952380954        0.2        
C2        C        0.40625        0.407408        0.33607930952380954        0        
C3        C        0.375        0.42592500000000005        0.33607930952380954        0        
C4        C        0.40625        0.37037        0.33607930952380954        0        
C1        C        0.375        0.46296300000000007        0.33607930952380954        0        
C2        C        0.40625        0.518519        0.33607930952380954        0        
C_FG        C        0.375        0.537037        0.33607930952380954        0.2        
C4        C        0.40625        0.481481        0.33607930952380954        0        
C1        C        0.375        0.574075        0.33607930952380954        0        
C2        C        0.40625        0.62963        0.33607930952380954        0        
C3        C        0.375        0.648148        0.33607930952380954        0        
C4        C        0.40625        0.592592        0.33607930952380954        0        
C1        C        0.4375        0.018519        0.33607930952380954        0        
C2        C        0.46875        0.074075        0.33607930952380954        0        
C3        C        0.4375        0.092592        0.33607930952380954        0        
C4        C        0.46875        0.037037        0.33607930952380954        0        
C1        C        0.4375        0.12963        0.33607930952380954        0        
C2        C        0.46875        0.185185        0.33607930952380954        0        
C3        C        0.4375        0.203703        0.33607930952380954        0        
C4        C        0.46875        0.148148        0.33607930952380954        0        
C1        C        0.4375        0.24074099999999998        0.33607930952380954        0        
C2        C        0.46875        0.296297        0.33607930952380954        0        
C3        C        0.4375        0.314815        0.33607930952380954        0        
C4        C        0.46875        0.259259        0.33607930952380954        0        
C1        C        0.4375        0.351852        0.33607930952380954        0        
C2        C        0.46875        0.407408        0.33607930952380954        0        
C3        C        0.4375        0.42592500000000005        0.33607930952380954        0        
C4        C        0.46875        0.37037        0.33607930952380954        0        
C1        C        0.4375        0.46296300000000007        0.33607930952380954        0        
C2        C        0.46875        0.518519        0.33607930952380954        0        
C3        C        0.4375        0.537037        0.33607930952380954        0        
C4        C        0.46875        0.481481        0.33607930952380954        0        
C1        C        0.4375        0.574075        0.33607930952380954        0        
C2        C        0.46875        0.62963        0.33607930952380954        0        
C3        C        0.4375        0.648148        0.33607930952380954        0        
C4        C        0.46875        0.592592        0.33607930952380954        0        
C_FG        C        0.5        0.018519        0.33607930952380954        0.2        
C2        C        0.53125        0.074075        0.33607930952380954        0        
C3        C        0.5        0.092592        0.33607930952380954        0        
C4        C        0.53125        0.037037        0.33607930952380954        0        
C1        C        0.5        0.12963        0.33607930952380954        0        
C2        C        0.53125        0.185185        0.33607930952380954        0        
C_FG        C        0.5        0.203703        0.33607930952380954        0.2        
C4        C        0.53125        0.148148        0.33607930952380954        0        
C1        C        0.5        0.24074099999999998        0.33607930952380954        0        
C2        C        0.53125        0.296297        0.33607930952380954        0        
C3        C        0.5        0.314815        0.33607930952380954        0        
C4        C        0.53125        0.259259        0.33607930952380954        0        
C_FG        C        0.5        0.351852        0.33607930952380954        0.2        
C2        C        0.53125        0.407408        0.33607930952380954        0        
C3        C        0.5        0.42592500000000005        0.33607930952380954        0        
C4        C        0.53125        0.37037        0.33607930952380954        0        
C1        C        0.5        0.46296300000000007        0.33607930952380954        0        
C2        C        0.53125        0.518519        0.33607930952380954        0        
C_FG        C        0.5        0.537037        0.33607930952380954        0.2        
C4        C        0.53125        0.481481        0.33607930952380954        0        
C1        C        0.5        0.574075        0.33607930952380954        0        
C2        C        0.53125        0.62963        0.33607930952380954        0        
C3        C        0.5        0.648148        0.33607930952380954        0        
C4        C        0.53125        0.592592        0.33607930952380954        0        
C1        C        0.5625        0.018519        0.33607930952380954        0        
C2        C        0.59375        0.074075        0.33607930952380954        0        
C3        C        0.5625        0.092592        0.33607930952380954        0        
C4        C        0.59375        0.037037        0.33607930952380954        0        
C1        C        0.5625        0.12963        0.33607930952380954        0        
C2        C        0.59375        0.185185        0.33607930952380954        0        
C3        C        0.5625        0.203703        0.33607930952380954        0        
C4        C        0.59375        0.148148        0.33607930952380954        0        
C1        C        0.5625        0.24074099999999998        0.33607930952380954        0        
C2        C        0.59375        0.296297        0.33607930952380954        0        
C3        C        0.5625        0.314815        0.33607930952380954        0        
C4        C        0.59375        0.259259        0.33607930952380954        0        
C1        C        0.5625        0.351852        0.33607930952380954        0        
C2        C        0.59375        0.407408        0.33607930952380954        0        
C3        C        0.5625        0.42592500000000005        0.33607930952380954        0        
C4        C        0.59375        0.37037        0.33607930952380954        0        
C1        C        0.5625        0.46296300000000007        0.33607930952380954        0        
C2        C        0.59375        0.518519        0.33607930952380954        0        
C3        C        0.5625        0.537037        0.33607930952380954        0        
C4        C        0.59375        0.481481        0.33607930952380954        0        
C1        C        0.5625        0.574075        0.33607930952380954        0        
C2        C        0.59375        0.62963        0.33607930952380954        0        
C3        C        0.5625        0.648148        0.33607930952380954        0        
C4        C        0.59375        0.592592        0.33607930952380954        0        
C_FG        C        0.625        0.018519        0.33607930952380954        0.2        
C2        C        0.65625        0.074075        0.33607930952380954        0        
C3        C        0.625        0.092592        0.33607930952380954        0        
C4        C        0.65625        0.037037        0.33607930952380954        0        
C1        C        0.625        0.12963        0.33607930952380954        0        
C2        C        0.65625        0.185185        0.33607930952380954        0        
C_FG        C        0.625        0.203703        0.33607930952380954        0.2        
C4        C        0.65625        0.148148        0.33607930952380954        0        
C1        C        0.625        0.24074099999999998        0.33607930952380954        0        
C2        C        0.65625        0.296297        0.33607930952380954        0        
C3        C        0.625        0.314815        0.33607930952380954        0        
C4        C        0.65625        0.259259        0.33607930952380954        0        
C_FG        C        0.625        0.351852        0.33607930952380954        0.2        
C2        C        0.65625        0.407408        0.33607930952380954        0        
C3        C        0.625        0.42592500000000005        0.33607930952380954        0        
C4        C        0.65625        0.37037        0.33607930952380954        0        
C1        C        0.625        0.46296300000000007        0.33607930952380954        0        
C2        C        0.65625        0.518519        0.33607930952380954        0        
C_FG        C        0.625        0.537037        0.33607930952380954        0.2        
C4        C        0.65625        0.481481        0.33607930952380954        0        
C1        C        0.625        0.574075        0.33607930952380954        0        
C2        C        0.65625        0.62963        0.33607930952380954        0        
C3        C        0.625        0.648148        0.33607930952380954        0        
C4        C        0.65625        0.592592        0.33607930952380954        0        
C1        C        0.6875        0.018519        0.33607930952380954        0        
C2        C        0.71875        0.074075        0.33607930952380954        0        
C3        C        0.6875        0.092592        0.33607930952380954        0        
C4        C        0.71875        0.037037        0.33607930952380954        0        
C1        C        0.6875        0.12963        0.33607930952380954        0        
C2        C        0.71875        0.185185        0.33607930952380954        0        
C3        C        0.6875        0.203703        0.33607930952380954        0        
C4        C        0.71875        0.148148        0.33607930952380954        0        
C1        C        0.6875        0.24074099999999998        0.33607930952380954        0        
C2        C        0.71875        0.296297        0.33607930952380954        0        
C3        C        0.6875        0.314815        0.33607930952380954        0        
C4        C        0.71875        0.259259        0.33607930952380954        0        
C1        C        0.6875        0.351852        0.33607930952380954        0        
C2        C        0.71875        0.407408        0.33607930952380954        0        
C3        C        0.6875        0.42592500000000005        0.33607930952380954        0        
C4        C        0.71875        0.37037        0.33607930952380954        0        
C1        C        0.6875        0.46296300000000007        0.33607930952380954        0        
C2        C        0.71875        0.518519        0.33607930952380954        0        
C3        C        0.6875        0.537037        0.33607930952380954        0        
C4        C        0.71875        0.481481        0.33607930952380954        0        
C1        C        0.6875        0.574075        0.33607930952380954        0        
C2        C        0.71875        0.62963        0.33607930952380954        0        
C3        C        0.6875        0.648148        0.33607930952380954        0        
C4        C        0.71875        0.592592        0.33607930952380954        0        
C_FG        C        0.75        0.018519        0.33607930952380954        0.2        
C2        C        0.78125        0.074075        0.33607930952380954        0        
C3        C        0.75        0.092592        0.33607930952380954        0        
C4        C        0.78125        0.037037        0.33607930952380954        0        
C1        C        0.75        0.12963        0.33607930952380954        0        
C2        C        0.78125        0.185185        0.33607930952380954        0        
C_FG        C        0.75        0.203703        0.33607930952380954        0.2        
C4        C        0.78125        0.148148        0.33607930952380954        0        
C1        C        0.75        0.24074099999999998        0.33607930952380954        0        
C2        C        0.78125        0.296297        0.33607930952380954        0        
C3        C        0.75        0.314815        0.33607930952380954        0        
C4        C        0.78125        0.259259        0.33607930952380954        0        
C_FG        C        0.75        0.351852        0.33607930952380954        0.2        
C2        C        0.78125        0.407408        0.33607930952380954        0        
C3        C        0.75        0.42592500000000005        0.33607930952380954        0        
C4        C        0.78125        0.37037        0.33607930952380954        0        
C1        C        0.75        0.46296300000000007        0.33607930952380954        0        
C2        C        0.78125        0.518519        0.33607930952380954        0        
C_FG        C        0.75        0.537037        0.33607930952380954        0.2        
C4        C        0.78125        0.481481        0.33607930952380954        0        
C1        C        0.75        0.574075        0.33607930952380954        0        
C2        C        0.78125        0.62963        0.33607930952380954        0        
C3        C        0.75        0.648148        0.33607930952380954        0        
C4        C        0.78125        0.592592        0.33607930952380954        0        
C1        C        0.8125        0.018519        0.33607930952380954        0        
C2        C        0.84375        0.074075        0.33607930952380954        0        
C3        C        0.8125        0.092592        0.33607930952380954        0        
C4        C        0.84375        0.037037        0.33607930952380954        0        
C1        C        0.8125        0.12963        0.33607930952380954        0        
C2        C        0.84375        0.185185        0.33607930952380954        0        
C3        C        0.8125        0.203703        0.33607930952380954        0        
C4        C        0.84375        0.148148        0.33607930952380954        0        
C1        C        0.8125        0.24074099999999998        0.33607930952380954        0        
C2        C        0.84375        0.296297        0.33607930952380954        0        
C3        C        0.8125        0.314815        0.33607930952380954        0        
C4        C        0.84375        0.259259        0.33607930952380954        0        
C1        C        0.8125        0.351852        0.33607930952380954        0        
C2        C        0.84375        0.407408        0.33607930952380954        0        
C3        C        0.8125        0.42592500000000005        0.33607930952380954        0        
C4        C        0.84375        0.37037        0.33607930952380954        0        
C1        C        0.8125        0.46296300000000007        0.33607930952380954        0        
C2        C        0.84375        0.518519        0.33607930952380954        0        
C3        C        0.8125        0.537037        0.33607930952380954        0        
C4        C        0.84375        0.481481        0.33607930952380954        0        
C1        C        0.8125        0.574075        0.33607930952380954        0        
C2        C        0.84375        0.62963        0.33607930952380954        0        
C3        C        0.8125        0.648148        0.33607930952380954        0        
C4        C        0.84375        0.592592        0.33607930952380954        0        
C_FG        C        0.875        0.018519        0.33607930952380954        0.2        
C2        C        0.9062500000000001        0.074075        0.33607930952380954        0        
C3        C        0.875        0.092592        0.33607930952380954        0        
C4        C        0.9062500000000001        0.037037        0.33607930952380954        0        
C1        C        0.875        0.12963        0.33607930952380954        0        
C2        C        0.9062500000000001        0.185185        0.33607930952380954        0        
C_FG        C        0.875        0.203703        0.33607930952380954        0.2        
C4        C        0.9062500000000001        0.148148        0.33607930952380954        0        
C1        C        0.875        0.24074099999999998        0.33607930952380954        0        
C2        C        0.9062500000000001        0.296297        0.33607930952380954        0        
C3        C        0.875        0.314815        0.33607930952380954        0        
C4        C        0.9062500000000001        0.259259        0.33607930952380954        0        
C_FG        C        0.875        0.351852        0.33607930952380954        0.2        
C2        C        0.9062500000000001        0.407408        0.33607930952380954        0        
C3        C        0.875        0.42592500000000005        0.33607930952380954        0        
C4        C        0.9062500000000001        0.37037        0.33607930952380954        0        
C1        C        0.875        0.46296300000000007        0.33607930952380954        0        
C2        C        0.9062500000000001        0.518519        0.33607930952380954        0        
C_FG        C        0.875        0.537037        0.33607930952380954        0.2        
C4        C        0.9062500000000001        0.481481        0.33607930952380954        0        
C1        C        0.875        0.574075        0.33607930952380954        0        
C2        C        0.9062500000000001        0.62963        0.33607930952380954        0        
C3        C        0.875        0.648148        0.33607930952380954        0        
C4        C        0.9062500000000001        0.592592        0.33607930952380954        0        
C1        C        0.9375        0.018519        0.33607930952380954        0        
C2        C        0.9687500000000001        0.074075        0.33607930952380954        0        
C3        C        0.9375        0.092592        0.33607930952380954        0        
C4        C        0.9687500000000001        0.037037        0.33607930952380954        0        
C1        C        0.9375        0.12963        0.33607930952380954        0        
C2        C        0.9687500000000001        0.185185        0.33607930952380954        0        
C3        C        0.9375        0.203703        0.33607930952380954        0        
C4        C        0.9687500000000001        0.148148        0.33607930952380954        0        
C1        C        0.9375        0.24074099999999998        0.33607930952380954        0        
C2        C        0.9687500000000001        0.296297        0.33607930952380954        0        
C3        C        0.9375        0.314815        0.33607930952380954        0        
C4        C        0.9687500000000001        0.259259        0.33607930952380954        0        
C1        C        0.9375        0.351852        0.33607930952380954        0        
C2        C        0.9687500000000001        0.407408        0.33607930952380954        0        
C3        C        0.9375        0.42592500000000005        0.33607930952380954        0        
C4        C        0.9687500000000001        0.37037        0.33607930952380954        0        
C1        C        0.9375        0.46296300000000007        0.33607930952380954        0        
C2        C        0.9687500000000001        0.518519        0.33607930952380954        0        
C3        C        0.9375        0.537037        0.33607930952380954        0        
C4        C        0.9687500000000001        0.481481        0.33607930952380954        0        
C1        C        0.9375        0.574075        0.33607930952380954        0        
C2        C        0.9687500000000001        0.62963        0.33607930952380954        0        
C3        C        0.9375        0.648148        0.33607930952380954        0        
C4        C        0.9687500000000001        0.592592        0.33607930952380954        0        
C_FG        C        0.0        0.685186        0.33607930952380954        0.2        
C1        C        0.0625        0.685186        0.33607930952380954        0        
C_FG        C        0.125        0.685186        0.33607930952380954        0.2        
C1        C        0.1875        0.685186        0.33607930952380954        0        
C_FG        C        0.25        0.685186        0.33607930952380954        0.2        
C1        C        0.3125        0.685186        0.33607930952380954        0        
C_FG        C        0.375        0.685186        0.33607930952380954        0.2        
C1        C        0.4375        0.685186        0.33607930952380954        0        
C_FG        C        0.5        0.685186        0.33607930952380954        0.2        
C1        C        0.5625        0.685186        0.33607930952380954        0        
C_FG        C        0.625        0.685186        0.33607930952380954        0.2        
C1        C        0.6875        0.685186        0.33607930952380954        0        
C_FG        C        0.75        0.685186        0.33607930952380954        0.2        
C1        C        0.8125        0.685186        0.33607930952380954        0        
C_FG        C        0.875        0.685186        0.33607930952380954        0.2        
C1        C        0.9375        0.685186        0.33607930952380954        0        
C2        C        0.03125        0.740741        0.33607930952380954        0        
C2        C        0.09375        0.740741        0.33607930952380954        0        
C2        C        0.15625        0.740741        0.33607930952380954        0        
C2        C        0.21875        0.740741        0.33607930952380954        0        
C2        C        0.28125        0.740741        0.33607930952380954        0        
C2        C        0.34375        0.740741        0.33607930952380954        0        
C2        C        0.40625        0.740741        0.33607930952380954        0        
C2        C        0.46875        0.740741        0.33607930952380954        0        
C2        C        0.53125        0.740741        0.33607930952380954        0        
C2        C        0.59375        0.740741        0.33607930952380954        0        
C2        C        0.65625        0.740741        0.33607930952380954        0        
C2        C        0.71875        0.740741        0.33607930952380954        0        
C2        C        0.78125        0.740741        0.33607930952380954        0        
C2        C        0.84375        0.740741        0.33607930952380954        0        
C2        C        0.9062500000000001        0.740741        0.33607930952380954        0        
C2        C        0.9687500000000001        0.740741        0.33607930952380954        0        
C3        C        0.0        0.759259        0.33607930952380954        0        
C3        C        0.0625        0.759259        0.33607930952380954        0        
C3        C        0.125        0.759259        0.33607930952380954        0        
C3        C        0.1875        0.759259        0.33607930952380954        0        
C3        C        0.25        0.759259        0.33607930952380954        0        
C3        C        0.3125        0.759259        0.33607930952380954        0        
C3        C        0.375        0.759259        0.33607930952380954        0        
C3        C        0.4375        0.759259        0.33607930952380954        0        
C3        C        0.5        0.759259        0.33607930952380954        0        
C3        C        0.5625        0.759259        0.33607930952380954        0        
C3        C        0.625        0.759259        0.33607930952380954        0        
C3        C        0.6875        0.759259        0.33607930952380954        0        
C3        C        0.75        0.759259        0.33607930952380954        0        
C3        C        0.8125        0.759259        0.33607930952380954        0        
C3        C        0.875        0.759259        0.33607930952380954        0        
C3        C        0.9375        0.759259        0.33607930952380954        0        
C4        C        0.03125        0.703703        0.33607930952380954        0        
C4        C        0.09375        0.703703        0.33607930952380954        0        
C4        C        0.15625        0.703703        0.33607930952380954        0        
C4        C        0.21875        0.703703        0.33607930952380954        0        
C4        C        0.28125        0.703703        0.33607930952380954        0        
C4        C        0.34375        0.703703        0.33607930952380954        0        
C4        C        0.40625        0.703703        0.33607930952380954        0        
C4        C        0.46875        0.703703        0.33607930952380954        0        
C4        C        0.53125        0.703703        0.33607930952380954        0        
C4        C        0.59375        0.703703        0.33607930952380954        0        
C4        C        0.65625        0.703703        0.33607930952380954        0        
C4        C        0.71875        0.703703        0.33607930952380954        0        
C4        C        0.78125        0.703703        0.33607930952380954        0        
C4        C        0.84375        0.703703        0.33607930952380954        0        
C4        C        0.9062500000000001        0.703703        0.33607930952380954        0        
C4        C        0.9687500000000001        0.703703        0.33607930952380954        0        
C1        C        0.0        0.796297        0.33607930952380954        0        
C1        C        0.0625        0.796297        0.33607930952380954        0        
C1        C        0.125        0.796297        0.33607930952380954        0        
C1        C        0.1875        0.796297        0.33607930952380954        0        
C1        C        0.25        0.796297        0.33607930952380954        0        
C1        C        0.3125        0.796297        0.33607930952380954        0        
C1        C        0.375        0.796297        0.33607930952380954        0        
C1        C        0.4375        0.796297        0.33607930952380954        0        
C1        C        0.5        0.796297        0.33607930952380954        0        
C1        C        0.5625        0.796297        0.33607930952380954        0        
C1        C        0.625        0.796297        0.33607930952380954        0        
C1        C        0.6875        0.796297        0.33607930952380954        0        
C1        C        0.75        0.796297        0.33607930952380954        0        
C1        C        0.8125        0.796297        0.33607930952380954        0        
C1        C        0.875        0.796297        0.33607930952380954        0        
C1        C        0.9375        0.796297        0.33607930952380954        0        
C2        C        0.03125        0.851852        0.33607930952380954        0        
C2        C        0.09375        0.851852        0.33607930952380954        0        
C2        C        0.15625        0.851852        0.33607930952380954        0        
C2        C        0.21875        0.851852        0.33607930952380954        0        
C2        C        0.28125        0.851852        0.33607930952380954        0        
C2        C        0.34375        0.851852        0.33607930952380954        0        
C2        C        0.40625        0.851852        0.33607930952380954        0        
C2        C        0.46875        0.851852        0.33607930952380954        0        
C2        C        0.53125        0.851852        0.33607930952380954        0        
C2        C        0.59375        0.851852        0.33607930952380954        0        
C2        C        0.65625        0.851852        0.33607930952380954        0        
C2        C        0.71875        0.851852        0.33607930952380954        0        
C2        C        0.78125        0.851852        0.33607930952380954        0        
C2        C        0.84375        0.851852        0.33607930952380954        0        
C2        C        0.9062500000000001        0.851852        0.33607930952380954        0        
C2        C        0.9687500000000001        0.851852        0.33607930952380954        0        
C_FG        C        0.0        0.87037        0.33607930952380954        0.2        
C3        C        0.0625        0.87037        0.33607930952380954        0        
C_FG        C        0.125        0.87037        0.33607930952380954        0.2        
C3        C        0.1875        0.87037        0.33607930952380954        0        
C_FG        C        0.25        0.87037        0.33607930952380954        0.2        
C3        C        0.3125        0.87037        0.33607930952380954        0        
C_FG        C        0.375        0.87037        0.33607930952380954        0.2        
C3        C        0.4375        0.87037        0.33607930952380954        0        
C_FG        C        0.5        0.87037        0.33607930952380954        0.2        
C3        C        0.5625        0.87037        0.33607930952380954        0        
C_FG        C        0.625        0.87037        0.33607930952380954        0.2        
C3        C        0.6875        0.87037        0.33607930952380954        0        
C_FG        C        0.75        0.87037        0.33607930952380954        0.2        
C3        C        0.8125        0.87037        0.33607930952380954        0        
C_FG        C        0.875        0.87037        0.33607930952380954        0.2        
C3        C        0.9375        0.87037        0.33607930952380954        0        
C4        C        0.03125        0.814814        0.33607930952380954        0        
C4        C        0.09375        0.814814        0.33607930952380954        0        
C4        C        0.15625        0.814814        0.33607930952380954        0        
C4        C        0.21875        0.814814        0.33607930952380954        0        
C4        C        0.28125        0.814814        0.33607930952380954        0        
C4        C        0.34375        0.814814        0.33607930952380954        0        
C4        C        0.40625        0.814814        0.33607930952380954        0        
C4        C        0.46875        0.814814        0.33607930952380954        0        
C4        C        0.53125        0.814814        0.33607930952380954        0        
C4        C        0.59375        0.814814        0.33607930952380954        0        
C4        C        0.65625        0.814814        0.33607930952380954        0        
C4        C        0.71875        0.814814        0.33607930952380954        0        
C4        C        0.78125        0.814814        0.33607930952380954        0        
C4        C        0.84375        0.814814        0.33607930952380954        0        
C4        C        0.9062500000000001        0.814814        0.33607930952380954        0        
C4        C        0.9687500000000001        0.814814        0.33607930952380954        0        
C1        C        0.0        0.907408        0.33607930952380954        0        
C1        C        0.0625        0.907408        0.33607930952380954        0        
C1        C        0.125        0.907408        0.33607930952380954        0        
C1        C        0.1875        0.907408        0.33607930952380954        0        
C1        C        0.25        0.907408        0.33607930952380954        0        
C1        C        0.3125        0.907408        0.33607930952380954        0        
C1        C        0.375        0.907408        0.33607930952380954        0        
C1        C        0.4375        0.907408        0.33607930952380954        0        
C1        C        0.5        0.907408        0.33607930952380954        0        
C1        C        0.5625        0.907408        0.33607930952380954        0        
C1        C        0.625        0.907408        0.33607930952380954        0        
C1        C        0.6875        0.907408        0.33607930952380954        0        
C1        C        0.75        0.907408        0.33607930952380954        0        
C1        C        0.8125        0.907408        0.33607930952380954        0        
C1        C        0.875        0.907408        0.33607930952380954        0        
C1        C        0.9375        0.907408        0.33607930952380954        0        
C2        C        0.03125        0.962963        0.33607930952380954        0        
C2        C        0.09375        0.962963        0.33607930952380954        0        
C2        C        0.15625        0.962963        0.33607930952380954        0        
C2        C        0.21875        0.962963        0.33607930952380954        0        
C2        C        0.28125        0.962963        0.33607930952380954        0        
C2        C        0.34375        0.962963        0.33607930952380954        0        
C2        C        0.40625        0.962963        0.33607930952380954        0        
C2        C        0.46875        0.962963        0.33607930952380954        0        
C2        C        0.53125        0.962963        0.33607930952380954        0        
C2        C        0.59375        0.962963        0.33607930952380954        0        
C2        C        0.65625        0.962963        0.33607930952380954        0        
C2        C        0.71875        0.962963        0.33607930952380954        0        
C2        C        0.78125        0.962963        0.33607930952380954        0        
C2        C        0.84375        0.962963        0.33607930952380954        0        
C2        C        0.9062500000000001        0.962963        0.33607930952380954        0        
C2        C        0.9687500000000001        0.962963        0.33607930952380954        0        
C3        C        0.0        0.9814809999999999        0.33607930952380954        0        
C3        C        0.0625        0.9814809999999999        0.33607930952380954        0        
C3        C        0.125        0.9814809999999999        0.33607930952380954        0        
C3        C        0.1875        0.9814809999999999        0.33607930952380954        0        
C3        C        0.25        0.9814809999999999        0.33607930952380954        0        
C3        C        0.3125        0.9814809999999999        0.33607930952380954        0        
C3        C        0.375        0.9814809999999999        0.33607930952380954        0        
C3        C        0.4375        0.9814809999999999        0.33607930952380954        0        
C3        C        0.5        0.9814809999999999        0.33607930952380954        0        
C3        C        0.5625        0.9814809999999999        0.33607930952380954        0        
C3        C        0.625        0.9814809999999999        0.33607930952380954        0        
C3        C        0.6875        0.9814809999999999        0.33607930952380954        0        
C3        C        0.75        0.9814809999999999        0.33607930952380954        0        
C3        C        0.8125        0.9814809999999999        0.33607930952380954        0        
C3        C        0.875        0.9814809999999999        0.33607930952380954        0        
C3        C        0.9375        0.9814809999999999        0.33607930952380954        0        
C4        C        0.03125        0.925925        0.33607930952380954        0        
C4        C        0.09375        0.925925        0.33607930952380954        0        
C4        C        0.15625        0.925925        0.33607930952380954        0        
C4        C        0.21875        0.925925        0.33607930952380954        0        
C4        C        0.28125        0.925925        0.33607930952380954        0        
C4        C        0.34375        0.925925        0.33607930952380954        0        
C4        C        0.40625        0.925925        0.33607930952380954        0        
C4        C        0.46875        0.925925        0.33607930952380954        0        
C4        C        0.53125        0.925925        0.33607930952380954        0        
C4        C        0.59375        0.925925        0.33607930952380954        0        
C4        C        0.65625        0.925925        0.33607930952380954        0        
C4        C        0.71875        0.925925        0.33607930952380954        0        
C4        C        0.78125        0.925925        0.33607930952380954        0        
C4        C        0.84375        0.925925        0.33607930952380954        0        
C4        C        0.9062500000000001        0.925925        0.33607930952380954        0        
C4        C        0.9687500000000001        0.925925        0.33607930952380954        0        
O_OH        O        0.0        0.018519        0.013341230158730157        -0.64        
O_OH        O        0.0        0.203703        0.013341230158730157        -0.64        
O_OH        O        0.0        0.351852        0.013341230158730157        -0.64        
O_OH        O        0.0        0.537037        0.013341230158730157        -0.64        
O_OH        O        0.125        0.018519        0.013341230158730157        -0.64        
O_OH        O        0.125        0.203703        0.013341230158730157        -0.64        
O_OH        O        0.125        0.351852        0.013341230158730157        -0.64        
O_OH        O        0.125        0.537037        0.013341230158730157        -0.64        
O_OH        O        0.25        0.018519        0.013341230158730157        -0.64        
O_OH        O        0.25        0.203703        0.013341230158730157        -0.64        
O_OH        O        0.25        0.351852        0.013341230158730157        -0.64        
O_OH        O        0.25        0.537037        0.013341230158730157        -0.64        
O_OH        O        0.375        0.018519        0.013341230158730157        -0.64        
O_OH        O        0.375        0.203703        0.013341230158730157        -0.64        
O_OH        O        0.375        0.351852        0.013341230158730157        -0.64        
O_OH        O        0.375        0.537037        0.013341230158730157        -0.64        
O_OH        O        0.5        0.018519        0.013341230158730157        -0.64        
O_OH        O        0.5        0.203703        0.013341230158730157        -0.64        
O_OH        O        0.5        0.351852        0.013341230158730157        -0.64        
O_OH        O        0.5        0.537037        0.013341230158730157        -0.64        
O_OH        O        0.625        0.018519        0.013341230158730157        -0.64        
O_OH        O        0.625        0.203703        0.013341230158730157        -0.64        
O_OH        O        0.625        0.351852        0.013341230158730157        -0.64        
O_OH        O        0.625        0.537037        0.013341230158730157        -0.64        
O_OH        O        0.75        0.018519        0.013341230158730157        -0.64        
O_OH        O        0.75        0.203703        0.013341230158730157        -0.64        
O_OH        O        0.75        0.351852        0.013341230158730157        -0.64        
O_OH        O        0.75        0.537037        0.013341230158730157        -0.64        
O_OH        O        0.875        0.018519        0.013341230158730157        -0.64        
O_OH        O        0.875        0.203703        0.013341230158730157        -0.64        
O_OH        O        0.875        0.351852        0.013341230158730157        -0.64        
O_OH        O        0.875        0.537037        0.013341230158730157        -0.64        
O_OH        O        0.0        0.685186        0.013341230158730157        -0.64        
O_OH        O        0.125        0.685186        0.013341230158730157        -0.64        
O_OH        O        0.25        0.685186        0.013341230158730157        -0.64        
O_OH        O        0.375        0.685186        0.013341230158730157        -0.64        
O_OH        O        0.5        0.685186        0.013341230158730157        -0.64        
O_OH        O        0.625        0.685186        0.013341230158730157        -0.64        
O_OH        O        0.75        0.685186        0.013341230158730157        -0.64        
O_OH        O        0.875        0.685186        0.013341230158730157        -0.64        
O_OH        O        0.0        0.87037        0.013341230158730157        -0.64        
O_OH        O        0.125        0.87037        0.013341230158730157        -0.64        
O_OH        O        0.25        0.87037        0.013341230158730157        -0.64        
O_OH        O        0.375        0.87037        0.013341230158730157        -0.64        
O_OH        O        0.5        0.87037        0.013341230158730157        -0.64        
O_OH        O        0.625        0.87037        0.013341230158730157        -0.64        
O_OH        O        0.75        0.87037        0.013341230158730157        -0.64        
O_OH        O        0.875        0.87037        0.013341230158730157        -0.64        
O_OH        O        0.0        0.018519        0.39294440476190473        -0.64        
O_OH        O        0.0        0.203703        0.39294440476190473        -0.64        
O_OH        O        0.0        0.351852        0.39294440476190473        -0.64        
O_OH        O        0.0        0.537037        0.39294440476190473        -0.64        
O_OH        O        0.125        0.018519        0.39294440476190473        -0.64        
O_OH        O        0.125        0.203703        0.39294440476190473        -0.64        
O_OH        O        0.125        0.351852        0.39294440476190473        -0.64        
O_OH        O        0.125        0.537037        0.39294440476190473        -0.64        
O_OH        O        0.25        0.018519        0.39294440476190473        -0.64        
O_OH        O        0.25        0.203703        0.39294440476190473        -0.64        
O_OH        O        0.25        0.351852        0.39294440476190473        -0.64        
O_OH        O        0.25        0.537037        0.39294440476190473        -0.64        
O_OH        O        0.375        0.018519        0.39294440476190473        -0.64        
O_OH        O        0.375        0.203703        0.39294440476190473        -0.64        
O_OH        O        0.375        0.351852        0.39294440476190473        -0.64        
O_OH        O        0.375        0.537037        0.39294440476190473        -0.64        
O_OH        O        0.5        0.018519        0.39294440476190473        -0.64        
O_OH        O        0.5        0.203703        0.39294440476190473        -0.64        
O_OH        O        0.5        0.351852        0.39294440476190473        -0.64        
O_OH        O        0.5        0.537037        0.39294440476190473        -0.64        
O_OH        O        0.625        0.018519        0.39294440476190473        -0.64        
O_OH        O        0.625        0.203703        0.39294440476190473        -0.64        
O_OH        O        0.625        0.351852        0.39294440476190473        -0.64        
O_OH        O        0.625        0.537037        0.39294440476190473        -0.64        
O_OH        O        0.75        0.018519        0.39294440476190473        -0.64        
O_OH        O        0.75        0.203703        0.39294440476190473        -0.64        
O_OH        O        0.75        0.351852        0.39294440476190473        -0.64        
O_OH        O        0.75        0.537037        0.39294440476190473        -0.64        
O_OH        O        0.875        0.018519        0.39294440476190473        -0.64        
O_OH        O        0.875        0.203703        0.39294440476190473        -0.64        
O_OH        O        0.875        0.351852        0.39294440476190473        -0.64        
O_OH        O        0.875        0.537037        0.39294440476190473        -0.64        
O_OH        O        0.0        0.685186        0.39294440476190473        -0.64        
O_OH        O        0.125        0.685186        0.39294440476190473        -0.64        
O_OH        O        0.25        0.685186        0.39294440476190473        -0.64        
O_OH        O        0.375        0.685186        0.39294440476190473        -0.64        
O_OH        O        0.5        0.685186        0.39294440476190473        -0.64        
O_OH        O        0.625        0.685186        0.39294440476190473        -0.64        
O_OH        O        0.75        0.685186        0.39294440476190473        -0.64        
O_OH        O        0.875        0.685186        0.39294440476190473        -0.64        
O_OH        O        0.0        0.87037        0.39294440476190473        -0.64        
O_OH        O        0.125        0.87037        0.39294440476190473        -0.64        
O_OH        O        0.25        0.87037        0.39294440476190473        -0.64        
O_OH        O        0.375        0.87037        0.39294440476190473        -0.64        
O_OH        O        0.5        0.87037        0.39294440476190473        -0.64        
O_OH        O        0.625        0.87037        0.39294440476190473        -0.64        
O_OH        O        0.75        0.87037        0.39294440476190473        -0.64        
O_OH        O        0.875        0.87037        0.39294440476190473        -0.64        
H_OH        H        0.008563233933500395        0.04026254565942546        0.0        0.44        
H_OH        H        0.013895052897424955        0.22231971767234415        0.0        0.44        
H_OH        H        0.01844054537823277        0.3656967221454581        0.0        0.44        
H_OH        H        -0.022823761180554108        0.5380637326152281        0.0        0.44        
H_OH        H        0.1451953070697504        0.02948368402127614        0.0        0.44        
H_OH        H        0.14722756991122046        0.20912162796362183        0.0        0.44        
H_OH        H        0.10583209494623438        0.364613136240215        0.0        0.44        
H_OH        H        0.10275212322359525        0.5423670729430589        0.0        0.44        
H_OH        H        0.2577128845867238        0.04059542139704218        0.0        0.44        
H_OH        H        0.2701390146073976        0.21477626650270698        0.0        0.44        
H_OH        H        0.27260250834575706        0.3552647354070691        0.0        0.44        
H_OH        H        0.2493475546147682        0.5604808844011274        0.0        0.44        
H_OH        H        0.36046900034321155        0.03661679153161191        0.0        0.44        
H_OH        H        0.36382339867208185        0.2241581448763431        0.0        0.44        
H_OH        H        0.38910487797373855        0.37030167014716825        0.0        0.44        
H_OH        H        0.3522759321193352        0.5394535709900097        0.0        0.44        
H_OH        H        0.522358871597123        0.023334767382717836        0.0        0.44        
H_OH        H        0.4905458833301323        0.22505399548521077        0.0        0.44        
H_OH        H        0.5185205661060828        0.36558368640649413        0.0        0.44        
H_OH        H        0.5193602152564027        0.5494884162087998        0.0        0.44        
H_OH        H        0.6040695002026673        0.027918932587338855        0.0        0.44        
H_OH        H        0.6098274155028556        0.22123711513411667        0.0        0.44        
H_OH        H        0.6208723574454807        0.37491947342368265        0.0        0.44        
H_OH        H        0.6348405631806936        0.5582031671056855        0.0        0.44        
H_OH        H        0.771767069444132        0.025640333670489894        0.0        0.44        
H_OH        H        0.7472656834274259        0.22698786124571046        0.0        0.44        
H_OH        H        0.7644804646883766        0.36999242991562636        0.0        0.44        
H_OH        H        0.727926653842687        0.5430836643518073        0.0        0.44        
H_OH        H        0.8791874038649274        0.04157511893381328        0.0        0.44        
H_OH        H        0.8609504809538522        0.22219713309564942        0.0        0.44        
H_OH        H        0.8558933436797804        0.364709575973994        0.0        0.44        
H_OH        H        0.8613794012004695        0.5558662623742975        0.0        0.44        
H_OH        H        -0.0036651509771260904        0.7083356598235356        0.0        0.44        
H_OH        H        0.1467120179435477        0.692482302816535        0.0        0.44        
H_OH        H        0.22800680698622952        0.6915330194811798        0.0        0.44        
H_OH        H        0.3570337903654556        0.6996731126102094        0.0        0.44        
H_OH        H        0.5069994214289943        0.7075115684933968        0.0        0.44        
H_OH        H        0.6426080741453862        0.700129351576744        0.0        0.44        
H_OH        H        0.7426582036003456        0.70739537197198        0.0        0.44        
H_OH        H        0.8809253728762558        0.7078368568968513        0.0        0.44        
H_OH        H        -0.003784108267388238        0.8934994796526824        0.0        0.44        
H_OH        H        0.1299927823516081        0.8932565127788404        0.0        0.44        
H_OH        H        0.2569732533523262        0.8927041971041421        0.0        0.44        
H_OH        H        0.39372768674945574        0.8838023629547905        0.0        0.44        
H_OH        H        0.5202364371882534        0.8812544693538079        0.0        0.44        
H_OH        H        0.6474075265300921        0.8749412224626129        0.0        0.44        
H_OH        H        0.7725642425206775        0.8740399170479689        0.0        0.44        
H_OH        H        0.8810307347049305        0.892991531380303        0.0        0.44        
H_OH        H        0.0018366300230908648        0.041896537775713866        0.40628563492063496        0.44        
H_OH        H        0.01775484645177683        0.21846218762328254        0.40628563492063496        0.44        
H_OH        H        -0.01997807521122907        0.3632283682715332        0.40628563492063496        0.44        
H_OH        H        0.020072088518030707        0.5482376026584965        0.40628563492063496        0.44        
H_OH        H        0.13807042344177536        0.03775484169197045        0.40628563492063496        0.44        
H_OH        H        0.10223589540586558        0.20568300679919083        0.40628563492063496        0.44        
H_OH        H        0.13942492680342        0.3700390034760258        0.40628563492063496        0.44        
H_OH        H        0.12233565953089959        0.5603304091194741        0.40628563492063496        0.44        
H_OH        H        0.2623305982179292        0.0382629389955425        0.40628563492063496        0.44        
H_OH        H        0.22761990372738422        0.20841371634370512        0.40628563492063496        0.44        
H_OH        H        0.2595473671552569        0.37315921889738946        0.40628563492063496        0.44        
H_OH        H        0.23313824770592773        0.5528615492651549        0.40628563492063496        0.44        
H_OH        H        0.3771339871446406        0.04186990840016247        0.40628563492063496        0.44        
H_OH        H        0.36363314930370744        0.2240473563587511        0.40628563492063496        0.44        
H_OH        H        0.36791500546535794        0.37414910248737876        0.40628563492063496        0.44        
H_OH        H        0.3889536189205935        0.5556074942000435        0.40628563492063496        0.44        
H_OH        H        0.4887750671858762        0.03894623372715448        0.40628563492063496        0.44        
H_OH        H        0.5015952051526851        0.22709920639739337        0.40628563492063496        0.44        
H_OH        H        0.4775945235113795        0.35643380057317037        0.40628563492063496        0.44        
H_OH        H        0.5117172113428173        0.5571707783459414        0.40628563492063496        0.44        
H_OH        H        0.6352421149840233        0.03948343664105127        0.40628563492063496        0.44        
H_OH        H        0.6457116042197267        0.21360075041629512        0.40628563492063496        0.44        
H_OH        H        0.6128220395688044        0.3716955318173114        0.40628563492063496        0.44        
H_OH        H        0.6079482033272431        0.5526454524459704        0.40628563492063496        0.44        
H_OH        H        0.744025533111846        0.041156261517755345        0.40628563492063496        0.44        
H_OH        H        0.7654484516338937        0.22098137984440494        0.40628563492063496        0.44        
H_OH        H        0.7386493809860685        0.3722059052642689        0.40628563492063496        0.44        
H_OH        H        0.7573206809454887        0.55925371669909        0.40628563492063496        0.44        
H_OH        H        0.8972310363439698        0.02392261981532873        0.40628563492063496        0.44        
H_OH        H        0.8679681749797669        0.22601783435340053        0.40628563492063496        0.44        
H_OH        H        0.8550310531156445        0.3632452464615966        0.40628563492063496        0.44        
H_OH        H        0.8570152572236143        0.5514998567151909        0.40628563492063496        0.44        
H_OH        H        0.02240608355991452        0.6897646707636803        0.40628563492063496        0.44        
H_OH        H        0.12695801277896526        0.7085531528936985        0.40628563492063496        0.44        
H_OH        H        0.23900061573598091        0.7057421378307978        0.40628563492063496        0.44        
H_OH        H        0.3899928338230933        0.7028823214711095        0.40628563492063496        0.44        
H_OH        H        0.4837157496026593        0.7016356288954249        0.40628563492063496        0.44        
H_OH        H        0.6442187534441179        0.6978662783835297        0.40628563492063496        0.44        
H_OH        H        0.7452325548304799        0.7081230963481799        0.40628563492063496        0.44        
H_OH        H        0.8680477848980245        0.7075271083742146        0.40628563492063496        0.44        
H_OH        H        0.016475167946172577        0.8866180378527316        0.40628563492063496        0.44        
H_OH        H        0.11659593694962862        0.8921788992885723        0.40628563492063496        0.44        
H_OH        H        0.2698293506458082        0.8820173730007209        0.40628563492063496        0.44        
H_OH        H        0.3656241305726588        0.8917573290082995        0.40628563492063496        0.44        
H_OH        H        0.4871308600643647        0.8897483466263724        0.40628563492063496        0.44        
H_OH        H        0.6465544380028573        0.8781431303245268        0.40628563492063496        0.44        
H_OH        H        0.7727188896285109        0.8728373503340019        0.40628563492063496        0.44        
H_OH        H        0.859804098383004        0.8878828212959425        0.40628563492063496        0.44        
