data_graphite_ortho

_audit_creation_method RASPA-1.0
_audit_creation_date 2012-2-3
_audit_author_name 'David Dubbeldam'

_cell_length_a    39.36    
_cell_length_b    38.34    
_cell_length_c    25.2    
_cell_angle_alpha 90
_cell_angle_beta  90
_cell_angle_gamma 90
_cell_volume      38028.37      

_symmetry_cell_setting          triclinic
_symmetry_space_group_name_Hall 'P 1'
_symmetry_space_group_name_H-M  'P 1'
_symmetry_Int_Tables_number     1

_symmetry_equiv_pos_as_xyz 'x,y,z'

loop_
_atom_site_label
_atom_site_type_symbol
_atom_site_fract_x
_atom_site_fract_y
_atom_site_fract_z
_atom_site_charge
C_FG        C        0.0        0.018519        0.0921325        0.08        
C2        C        0.03125        0.074075        0.0921325        0        
C3        C        0.0        0.092592        0.0921325        0        
C4        C        0.03125        0.037037        0.0921325        0        
C1        C        0.0        0.12963        0.0921325        0        
C2        C        0.03125        0.185185        0.0921325        0        
C_FG        C        0.0        0.203703        0.0921325        0.08        
C4        C        0.03125        0.148148        0.0921325        0        
C1        C        0.0        0.24074099999999998        0.0921325        0        
C2        C        0.03125        0.296297        0.0921325        0        
C3        C        0.0        0.314815        0.0921325        0        
C4        C        0.03125        0.259259        0.0921325        0        
C_FG        C        0.0        0.351852        0.0921325        0.08        
C2        C        0.03125        0.407408        0.0921325        0        
C3        C        0.0        0.42592500000000005        0.0921325        0        
C4        C        0.03125        0.37037        0.0921325        0        
C1        C        0.0        0.46296300000000007        0.0921325        0        
C2        C        0.03125        0.518519        0.0921325        0        
C_FG        C        0.0        0.537037        0.0921325        0.08        
C4        C        0.03125        0.481481        0.0921325        0        
C1        C        0.0        0.574075        0.0921325        0        
C2        C        0.03125        0.62963        0.0921325        0        
C3        C        0.0        0.648148        0.0921325        0        
C4        C        0.03125        0.592592        0.0921325        0        
C1        C        0.0625        0.018519        0.0921325        0        
C2        C        0.09375        0.074075        0.0921325        0        
C3        C        0.0625        0.092592        0.0921325        0        
C4        C        0.09375        0.037037        0.0921325        0        
C1        C        0.0625        0.12963        0.0921325        0        
C2        C        0.09375        0.185185        0.0921325        0        
C3        C        0.0625        0.203703        0.0921325        0        
C4        C        0.09375        0.148148        0.0921325        0        
C1        C        0.0625        0.24074099999999998        0.0921325        0        
C2        C        0.09375        0.296297        0.0921325        0        
C3        C        0.0625        0.314815        0.0921325        0        
C4        C        0.09375        0.259259        0.0921325        0        
C1        C        0.0625        0.351852        0.0921325        0        
C2        C        0.09375        0.407408        0.0921325        0        
C3        C        0.0625        0.42592500000000005        0.0921325        0        
C4        C        0.09375        0.37037        0.0921325        0        
C1        C        0.0625        0.46296300000000007        0.0921325        0        
C2        C        0.09375        0.518519        0.0921325        0        
C3        C        0.0625        0.537037        0.0921325        0        
C4        C        0.09375        0.481481        0.0921325        0        
C1        C        0.0625        0.574075        0.0921325        0        
C2        C        0.09375        0.62963        0.0921325        0        
C3        C        0.0625        0.648148        0.0921325        0        
C4        C        0.09375        0.592592        0.0921325        0        
C1        C        0.125        0.018519        0.0921325        0        
C2        C        0.15625        0.074075        0.0921325        0        
C3        C        0.125        0.092592        0.0921325        0        
C4        C        0.15625        0.037037        0.0921325        0        
C1        C        0.125        0.12963        0.0921325        0        
C2        C        0.15625        0.185185        0.0921325        0        
C3        C        0.125        0.203703        0.0921325        0        
C4        C        0.15625        0.148148        0.0921325        0        
C1        C        0.125        0.24074099999999998        0.0921325        0        
C2        C        0.15625        0.296297        0.0921325        0        
C3        C        0.125        0.314815        0.0921325        0        
C4        C        0.15625        0.259259        0.0921325        0        
C1        C        0.125        0.351852        0.0921325        0        
C2        C        0.15625        0.407408        0.0921325        0        
C3        C        0.125        0.42592500000000005        0.0921325        0        
C4        C        0.15625        0.37037        0.0921325        0        
C1        C        0.125        0.46296300000000007        0.0921325        0        
C2        C        0.15625        0.518519        0.0921325        0        
C3        C        0.125        0.537037        0.0921325        0        
C4        C        0.15625        0.481481        0.0921325        0        
C1        C        0.125        0.574075        0.0921325        0        
C2        C        0.15625        0.62963        0.0921325        0        
C3        C        0.125        0.648148        0.0921325        0        
C4        C        0.15625        0.592592        0.0921325        0        
C_FG        C        0.1875        0.018519        0.0921325        0.08        
C2        C        0.21875        0.074075        0.0921325        0        
C3        C        0.1875        0.092592        0.0921325        0        
C4        C        0.21875        0.037037        0.0921325        0        
C1        C        0.1875        0.12963        0.0921325        0        
C2        C        0.21875        0.185185        0.0921325        0        
C_FG        C        0.1875        0.203703        0.0921325        0.08        
C4        C        0.21875        0.148148        0.0921325        0        
C1        C        0.1875        0.24074099999999998        0.0921325        0        
C2        C        0.21875        0.296297        0.0921325        0        
C3        C        0.1875        0.314815        0.0921325        0        
C4        C        0.21875        0.259259        0.0921325        0        
C_FG        C        0.1875        0.351852        0.0921325        0.08        
C2        C        0.21875        0.407408        0.0921325        0        
C3        C        0.1875        0.42592500000000005        0.0921325        0        
C4        C        0.21875        0.37037        0.0921325        0        
C1        C        0.1875        0.46296300000000007        0.0921325        0        
C2        C        0.21875        0.518519        0.0921325        0        
C_FG        C        0.1875        0.537037        0.0921325        0.08        
C4        C        0.21875        0.481481        0.0921325        0        
C1        C        0.1875        0.574075        0.0921325        0        
C2        C        0.21875        0.62963        0.0921325        0        
C3        C        0.1875        0.648148        0.0921325        0        
C4        C        0.21875        0.592592        0.0921325        0        
C1        C        0.25        0.018519        0.0921325        0        
C2        C        0.28125        0.074075        0.0921325        0        
C3        C        0.25        0.092592        0.0921325        0        
C4        C        0.28125        0.037037        0.0921325        0        
C1        C        0.25        0.12963        0.0921325        0        
C2        C        0.28125        0.185185        0.0921325        0        
C3        C        0.25        0.203703        0.0921325        0        
C4        C        0.28125        0.148148        0.0921325        0        
C1        C        0.25        0.24074099999999998        0.0921325        0        
C2        C        0.28125        0.296297        0.0921325        0        
C3        C        0.25        0.314815        0.0921325        0        
C4        C        0.28125        0.259259        0.0921325        0        
C1        C        0.25        0.351852        0.0921325        0        
C2        C        0.28125        0.407408        0.0921325        0        
C3        C        0.25        0.42592500000000005        0.0921325        0        
C4        C        0.28125        0.37037        0.0921325        0        
C1        C        0.25        0.46296300000000007        0.0921325        0        
C2        C        0.28125        0.518519        0.0921325        0        
C3        C        0.25        0.537037        0.0921325        0        
C4        C        0.28125        0.481481        0.0921325        0        
C1        C        0.25        0.574075        0.0921325        0        
C2        C        0.28125        0.62963        0.0921325        0        
C3        C        0.25        0.648148        0.0921325        0        
C4        C        0.28125        0.592592        0.0921325        0        
C1        C        0.3125        0.018519        0.0921325        0        
C2        C        0.34375        0.074075        0.0921325        0        
C3        C        0.3125        0.092592        0.0921325        0        
C4        C        0.34375        0.037037        0.0921325        0        
C1        C        0.3125        0.12963        0.0921325        0        
C2        C        0.34375        0.185185        0.0921325        0        
C3        C        0.3125        0.203703        0.0921325        0        
C4        C        0.34375        0.148148        0.0921325        0        
C1        C        0.3125        0.24074099999999998        0.0921325        0        
C2        C        0.34375        0.296297        0.0921325        0        
C3        C        0.3125        0.314815        0.0921325        0        
C4        C        0.34375        0.259259        0.0921325        0        
C1        C        0.3125        0.351852        0.0921325        0        
C2        C        0.34375        0.407408        0.0921325        0        
C3        C        0.3125        0.42592500000000005        0.0921325        0        
C4        C        0.34375        0.37037        0.0921325        0        
C1        C        0.3125        0.46296300000000007        0.0921325        0        
C2        C        0.34375        0.518519        0.0921325        0        
C3        C        0.3125        0.537037        0.0921325        0        
C4        C        0.34375        0.481481        0.0921325        0        
C1        C        0.3125        0.574075        0.0921325        0        
C2        C        0.34375        0.62963        0.0921325        0        
C3        C        0.3125        0.648148        0.0921325        0        
C4        C        0.34375        0.592592        0.0921325        0        
C_FG        C        0.375        0.018519        0.0921325        0.08        
C2        C        0.40625        0.074075        0.0921325        0        
C3        C        0.375        0.092592        0.0921325        0        
C4        C        0.40625        0.037037        0.0921325        0        
C1        C        0.375        0.12963        0.0921325        0        
C2        C        0.40625        0.185185        0.0921325        0        
C_FG        C        0.375        0.203703        0.0921325        0.08        
C4        C        0.40625        0.148148        0.0921325        0        
C1        C        0.375        0.24074099999999998        0.0921325        0        
C2        C        0.40625        0.296297        0.0921325        0        
C3        C        0.375        0.314815        0.0921325        0        
C4        C        0.40625        0.259259        0.0921325        0        
C_FG        C        0.375        0.351852        0.0921325        0.08        
C2        C        0.40625        0.407408        0.0921325        0        
C3        C        0.375        0.42592500000000005        0.0921325        0        
C4        C        0.40625        0.37037        0.0921325        0        
C1        C        0.375        0.46296300000000007        0.0921325        0        
C2        C        0.40625        0.518519        0.0921325        0        
C_FG        C        0.375        0.537037        0.0921325        0.08        
C4        C        0.40625        0.481481        0.0921325        0        
C1        C        0.375        0.574075        0.0921325        0        
C2        C        0.40625        0.62963        0.0921325        0        
C3        C        0.375        0.648148        0.0921325        0        
C4        C        0.40625        0.592592        0.0921325        0        
C1        C        0.4375        0.018519        0.0921325        0        
C2        C        0.46875        0.074075        0.0921325        0        
C3        C        0.4375        0.092592        0.0921325        0        
C4        C        0.46875        0.037037        0.0921325        0        
C1        C        0.4375        0.12963        0.0921325        0        
C2        C        0.46875        0.185185        0.0921325        0        
C3        C        0.4375        0.203703        0.0921325        0        
C4        C        0.46875        0.148148        0.0921325        0        
C1        C        0.4375        0.24074099999999998        0.0921325        0        
C2        C        0.46875        0.296297        0.0921325        0        
C3        C        0.4375        0.314815        0.0921325        0        
C4        C        0.46875        0.259259        0.0921325        0        
C1        C        0.4375        0.351852        0.0921325        0        
C2        C        0.46875        0.407408        0.0921325        0        
C3        C        0.4375        0.42592500000000005        0.0921325        0        
C4        C        0.46875        0.37037        0.0921325        0        
C1        C        0.4375        0.46296300000000007        0.0921325        0        
C2        C        0.46875        0.518519        0.0921325        0        
C3        C        0.4375        0.537037        0.0921325        0        
C4        C        0.46875        0.481481        0.0921325        0        
C1        C        0.4375        0.574075        0.0921325        0        
C2        C        0.46875        0.62963        0.0921325        0        
C3        C        0.4375        0.648148        0.0921325        0        
C4        C        0.46875        0.592592        0.0921325        0        
C1        C        0.5        0.018519        0.0921325        0        
C2        C        0.53125        0.074075        0.0921325        0        
C3        C        0.5        0.092592        0.0921325        0        
C4        C        0.53125        0.037037        0.0921325        0        
C1        C        0.5        0.12963        0.0921325        0        
C2        C        0.53125        0.185185        0.0921325        0        
C3        C        0.5        0.203703        0.0921325        0        
C4        C        0.53125        0.148148        0.0921325        0        
C1        C        0.5        0.24074099999999998        0.0921325        0        
C2        C        0.53125        0.296297        0.0921325        0        
C3        C        0.5        0.314815        0.0921325        0        
C4        C        0.53125        0.259259        0.0921325        0        
C1        C        0.5        0.351852        0.0921325        0        
C2        C        0.53125        0.407408        0.0921325        0        
C3        C        0.5        0.42592500000000005        0.0921325        0        
C4        C        0.53125        0.37037        0.0921325        0        
C1        C        0.5        0.46296300000000007        0.0921325        0        
C2        C        0.53125        0.518519        0.0921325        0        
C3        C        0.5        0.537037        0.0921325        0        
C4        C        0.53125        0.481481        0.0921325        0        
C1        C        0.5        0.574075        0.0921325        0        
C2        C        0.53125        0.62963        0.0921325        0        
C3        C        0.5        0.648148        0.0921325        0        
C4        C        0.53125        0.592592        0.0921325        0        
C_FG        C        0.5625        0.018519        0.0921325        0.08        
C2        C        0.59375        0.074075        0.0921325        0        
C3        C        0.5625        0.092592        0.0921325        0        
C4        C        0.59375        0.037037        0.0921325        0        
C1        C        0.5625        0.12963        0.0921325        0        
C2        C        0.59375        0.185185        0.0921325        0        
C_FG        C        0.5625        0.203703        0.0921325        0.08        
C4        C        0.59375        0.148148        0.0921325        0        
C1        C        0.5625        0.24074099999999998        0.0921325        0        
C2        C        0.59375        0.296297        0.0921325        0        
C3        C        0.5625        0.314815        0.0921325        0        
C4        C        0.59375        0.259259        0.0921325        0        
C_FG        C        0.5625        0.351852        0.0921325        0.08        
C2        C        0.59375        0.407408        0.0921325        0        
C3        C        0.5625        0.42592500000000005        0.0921325        0        
C4        C        0.59375        0.37037        0.0921325        0        
C1        C        0.5625        0.46296300000000007        0.0921325        0        
C2        C        0.59375        0.518519        0.0921325        0        
C_FG        C        0.5625        0.537037        0.0921325        0.08        
C4        C        0.59375        0.481481        0.0921325        0        
C1        C        0.5625        0.574075        0.0921325        0        
C2        C        0.59375        0.62963        0.0921325        0        
C3        C        0.5625        0.648148        0.0921325        0        
C4        C        0.59375        0.592592        0.0921325        0        
C1        C        0.625        0.018519        0.0921325        0        
C2        C        0.65625        0.074075        0.0921325        0        
C3        C        0.625        0.092592        0.0921325        0        
C4        C        0.65625        0.037037        0.0921325        0        
C1        C        0.625        0.12963        0.0921325        0        
C2        C        0.65625        0.185185        0.0921325        0        
C3        C        0.625        0.203703        0.0921325        0        
C4        C        0.65625        0.148148        0.0921325        0        
C1        C        0.625        0.24074099999999998        0.0921325        0        
C2        C        0.65625        0.296297        0.0921325        0        
C3        C        0.625        0.314815        0.0921325        0        
C4        C        0.65625        0.259259        0.0921325        0        
C1        C        0.625        0.351852        0.0921325        0        
C2        C        0.65625        0.407408        0.0921325        0        
C3        C        0.625        0.42592500000000005        0.0921325        0        
C4        C        0.65625        0.37037        0.0921325        0        
C1        C        0.625        0.46296300000000007        0.0921325        0        
C2        C        0.65625        0.518519        0.0921325        0        
C3        C        0.625        0.537037        0.0921325        0        
C4        C        0.65625        0.481481        0.0921325        0        
C1        C        0.625        0.574075        0.0921325        0        
C2        C        0.65625        0.62963        0.0921325        0        
C3        C        0.625        0.648148        0.0921325        0        
C4        C        0.65625        0.592592        0.0921325        0        
C1        C        0.6875        0.018519        0.0921325        0        
C2        C        0.71875        0.074075        0.0921325        0        
C3        C        0.6875        0.092592        0.0921325        0        
C4        C        0.71875        0.037037        0.0921325        0        
C1        C        0.6875        0.12963        0.0921325        0        
C2        C        0.71875        0.185185        0.0921325        0        
C3        C        0.6875        0.203703        0.0921325        0        
C4        C        0.71875        0.148148        0.0921325        0        
C1        C        0.6875        0.24074099999999998        0.0921325        0        
C2        C        0.71875        0.296297        0.0921325        0        
C3        C        0.6875        0.314815        0.0921325        0        
C4        C        0.71875        0.259259        0.0921325        0        
C1        C        0.6875        0.351852        0.0921325        0        
C2        C        0.71875        0.407408        0.0921325        0        
C3        C        0.6875        0.42592500000000005        0.0921325        0        
C4        C        0.71875        0.37037        0.0921325        0        
C1        C        0.6875        0.46296300000000007        0.0921325        0        
C2        C        0.71875        0.518519        0.0921325        0        
C3        C        0.6875        0.537037        0.0921325        0        
C4        C        0.71875        0.481481        0.0921325        0        
C1        C        0.6875        0.574075        0.0921325        0        
C2        C        0.71875        0.62963        0.0921325        0        
C3        C        0.6875        0.648148        0.0921325        0        
C4        C        0.71875        0.592592        0.0921325        0        
C_FG        C        0.75        0.018519        0.0921325        0.08        
C2        C        0.78125        0.074075        0.0921325        0        
C3        C        0.75        0.092592        0.0921325        0        
C4        C        0.78125        0.037037        0.0921325        0        
C1        C        0.75        0.12963        0.0921325        0        
C2        C        0.78125        0.185185        0.0921325        0        
C_FG        C        0.75        0.203703        0.0921325        0.08        
C4        C        0.78125        0.148148        0.0921325        0        
C1        C        0.75        0.24074099999999998        0.0921325        0        
C2        C        0.78125        0.296297        0.0921325        0        
C3        C        0.75        0.314815        0.0921325        0        
C4        C        0.78125        0.259259        0.0921325        0        
C_FG        C        0.75        0.351852        0.0921325        0.08        
C2        C        0.78125        0.407408        0.0921325        0        
C3        C        0.75        0.42592500000000005        0.0921325        0        
C4        C        0.78125        0.37037        0.0921325        0        
C1        C        0.75        0.46296300000000007        0.0921325        0        
C2        C        0.78125        0.518519        0.0921325        0        
C_FG        C        0.75        0.537037        0.0921325        0.08        
C4        C        0.78125        0.481481        0.0921325        0        
C1        C        0.75        0.574075        0.0921325        0        
C2        C        0.78125        0.62963        0.0921325        0        
C3        C        0.75        0.648148        0.0921325        0        
C4        C        0.78125        0.592592        0.0921325        0        
C1        C        0.8125        0.018519        0.0921325        0        
C2        C        0.84375        0.074075        0.0921325        0        
C3        C        0.8125        0.092592        0.0921325        0        
C4        C        0.84375        0.037037        0.0921325        0        
C1        C        0.8125        0.12963        0.0921325        0        
C2        C        0.84375        0.185185        0.0921325        0        
C3        C        0.8125        0.203703        0.0921325        0        
C4        C        0.84375        0.148148        0.0921325        0        
C1        C        0.8125        0.24074099999999998        0.0921325        0        
C2        C        0.84375        0.296297        0.0921325        0        
C3        C        0.8125        0.314815        0.0921325        0        
C4        C        0.84375        0.259259        0.0921325        0        
C1        C        0.8125        0.351852        0.0921325        0        
C2        C        0.84375        0.407408        0.0921325        0        
C3        C        0.8125        0.42592500000000005        0.0921325        0        
C4        C        0.84375        0.37037        0.0921325        0        
C1        C        0.8125        0.46296300000000007        0.0921325        0        
C2        C        0.84375        0.518519        0.0921325        0        
C3        C        0.8125        0.537037        0.0921325        0        
C4        C        0.84375        0.481481        0.0921325        0        
C1        C        0.8125        0.574075        0.0921325        0        
C2        C        0.84375        0.62963        0.0921325        0        
C3        C        0.8125        0.648148        0.0921325        0        
C4        C        0.84375        0.592592        0.0921325        0        
C1        C        0.875        0.018519        0.0921325        0        
C2        C        0.9062500000000001        0.074075        0.0921325        0        
C3        C        0.875        0.092592        0.0921325        0        
C4        C        0.9062500000000001        0.037037        0.0921325        0        
C1        C        0.875        0.12963        0.0921325        0        
C2        C        0.9062500000000001        0.185185        0.0921325        0        
C3        C        0.875        0.203703        0.0921325        0        
C4        C        0.9062500000000001        0.148148        0.0921325        0        
C1        C        0.875        0.24074099999999998        0.0921325        0        
C2        C        0.9062500000000001        0.296297        0.0921325        0        
C3        C        0.875        0.314815        0.0921325        0        
C4        C        0.9062500000000001        0.259259        0.0921325        0        
C1        C        0.875        0.351852        0.0921325        0        
C2        C        0.9062500000000001        0.407408        0.0921325        0        
C3        C        0.875        0.42592500000000005        0.0921325        0        
C4        C        0.9062500000000001        0.37037        0.0921325        0        
C1        C        0.875        0.46296300000000007        0.0921325        0        
C2        C        0.9062500000000001        0.518519        0.0921325        0        
C3        C        0.875        0.537037        0.0921325        0        
C4        C        0.9062500000000001        0.481481        0.0921325        0        
C1        C        0.875        0.574075        0.0921325        0        
C2        C        0.9062500000000001        0.62963        0.0921325        0        
C3        C        0.875        0.648148        0.0921325        0        
C4        C        0.9062500000000001        0.592592        0.0921325        0        
C_FG        C        0.9375        0.018519        0.0921325        0.08        
C2        C        0.9687500000000001        0.074075        0.0921325        0        
C3        C        0.9375        0.092592        0.0921325        0        
C4        C        0.9687500000000001        0.037037        0.0921325        0        
C1        C        0.9375        0.12963        0.0921325        0        
C2        C        0.9687500000000001        0.185185        0.0921325        0        
C_FG        C        0.9375        0.203703        0.0921325        0.08        
C4        C        0.9687500000000001        0.148148        0.0921325        0        
C1        C        0.9375        0.24074099999999998        0.0921325        0        
C2        C        0.9687500000000001        0.296297        0.0921325        0        
C3        C        0.9375        0.314815        0.0921325        0        
C4        C        0.9687500000000001        0.259259        0.0921325        0        
C_FG        C        0.9375        0.351852        0.0921325        0.08        
C2        C        0.9687500000000001        0.407408        0.0921325        0        
C3        C        0.9375        0.42592500000000005        0.0921325        0        
C4        C        0.9687500000000001        0.37037        0.0921325        0        
C1        C        0.9375        0.46296300000000007        0.0921325        0        
C2        C        0.9687500000000001        0.518519        0.0921325        0        
C_FG        C        0.9375        0.537037        0.0921325        0.08        
C4        C        0.9687500000000001        0.481481        0.0921325        0        
C1        C        0.9375        0.574075        0.0921325        0        
C2        C        0.9687500000000001        0.62963        0.0921325        0        
C3        C        0.9375        0.648148        0.0921325        0        
C4        C        0.9687500000000001        0.592592        0.0921325        0        
C_FG        C        0.0        0.685186        0.0921325        0.08        
C1        C        0.0625        0.685186        0.0921325        0        
C1        C        0.125        0.685186        0.0921325        0        
C_FG        C        0.1875        0.685186        0.0921325        0.08        
C1        C        0.25        0.685186        0.0921325        0        
C1        C        0.3125        0.685186        0.0921325        0        
C_FG        C        0.375        0.685186        0.0921325        0.08        
C1        C        0.4375        0.685186        0.0921325        0        
C1        C        0.5        0.685186        0.0921325        0        
C_FG        C        0.5625        0.685186        0.0921325        0.08        
C1        C        0.625        0.685186        0.0921325        0        
C1        C        0.6875        0.685186        0.0921325        0        
C_FG        C        0.75        0.685186        0.0921325        0.08        
C1        C        0.8125        0.685186        0.0921325        0        
C1        C        0.875        0.685186        0.0921325        0        
C_FG        C        0.9375        0.685186        0.0921325        0.08        
C2        C        0.03125        0.740741        0.0921325        0        
C2        C        0.09375        0.740741        0.0921325        0        
C2        C        0.15625        0.740741        0.0921325        0        
C2        C        0.21875        0.740741        0.0921325        0        
C2        C        0.28125        0.740741        0.0921325        0        
C2        C        0.34375        0.740741        0.0921325        0        
C2        C        0.40625        0.740741        0.0921325        0        
C2        C        0.46875        0.740741        0.0921325        0        
C2        C        0.53125        0.740741        0.0921325        0        
C2        C        0.59375        0.740741        0.0921325        0        
C2        C        0.65625        0.740741        0.0921325        0        
C2        C        0.71875        0.740741        0.0921325        0        
C2        C        0.78125        0.740741        0.0921325        0        
C2        C        0.84375        0.740741        0.0921325        0        
C2        C        0.9062500000000001        0.740741        0.0921325        0        
C2        C        0.9687500000000001        0.740741        0.0921325        0        
C3        C        0.0        0.759259        0.0921325        0        
C3        C        0.0625        0.759259        0.0921325        0        
C3        C        0.125        0.759259        0.0921325        0        
C3        C        0.1875        0.759259        0.0921325        0        
C3        C        0.25        0.759259        0.0921325        0        
C3        C        0.3125        0.759259        0.0921325        0        
C3        C        0.375        0.759259        0.0921325        0        
C3        C        0.4375        0.759259        0.0921325        0        
C3        C        0.5        0.759259        0.0921325        0        
C3        C        0.5625        0.759259        0.0921325        0        
C3        C        0.625        0.759259        0.0921325        0        
C3        C        0.6875        0.759259        0.0921325        0        
C3        C        0.75        0.759259        0.0921325        0        
C3        C        0.8125        0.759259        0.0921325        0        
C3        C        0.875        0.759259        0.0921325        0        
C3        C        0.9375        0.759259        0.0921325        0        
C4        C        0.03125        0.703703        0.0921325        0        
C4        C        0.09375        0.703703        0.0921325        0        
C4        C        0.15625        0.703703        0.0921325        0        
C4        C        0.21875        0.703703        0.0921325        0        
C4        C        0.28125        0.703703        0.0921325        0        
C4        C        0.34375        0.703703        0.0921325        0        
C4        C        0.40625        0.703703        0.0921325        0        
C4        C        0.46875        0.703703        0.0921325        0        
C4        C        0.53125        0.703703        0.0921325        0        
C4        C        0.59375        0.703703        0.0921325        0        
C4        C        0.65625        0.703703        0.0921325        0        
C4        C        0.71875        0.703703        0.0921325        0        
C4        C        0.78125        0.703703        0.0921325        0        
C4        C        0.84375        0.703703        0.0921325        0        
C4        C        0.9062500000000001        0.703703        0.0921325        0        
C4        C        0.9687500000000001        0.703703        0.0921325        0        
C1        C        0.0        0.796297        0.0921325        0        
C1        C        0.0625        0.796297        0.0921325        0        
C1        C        0.125        0.796297        0.0921325        0        
C1        C        0.1875        0.796297        0.0921325        0        
C1        C        0.25        0.796297        0.0921325        0        
C1        C        0.3125        0.796297        0.0921325        0        
C1        C        0.375        0.796297        0.0921325        0        
C1        C        0.4375        0.796297        0.0921325        0        
C1        C        0.5        0.796297        0.0921325        0        
C1        C        0.5625        0.796297        0.0921325        0        
C1        C        0.625        0.796297        0.0921325        0        
C1        C        0.6875        0.796297        0.0921325        0        
C1        C        0.75        0.796297        0.0921325        0        
C1        C        0.8125        0.796297        0.0921325        0        
C1        C        0.875        0.796297        0.0921325        0        
C1        C        0.9375        0.796297        0.0921325        0        
C2        C        0.03125        0.851852        0.0921325        0        
C2        C        0.09375        0.851852        0.0921325        0        
C2        C        0.15625        0.851852        0.0921325        0        
C2        C        0.21875        0.851852        0.0921325        0        
C2        C        0.28125        0.851852        0.0921325        0        
C2        C        0.34375        0.851852        0.0921325        0        
C2        C        0.40625        0.851852        0.0921325        0        
C2        C        0.46875        0.851852        0.0921325        0        
C2        C        0.53125        0.851852        0.0921325        0        
C2        C        0.59375        0.851852        0.0921325        0        
C2        C        0.65625        0.851852        0.0921325        0        
C2        C        0.71875        0.851852        0.0921325        0        
C2        C        0.78125        0.851852        0.0921325        0        
C2        C        0.84375        0.851852        0.0921325        0        
C2        C        0.9062500000000001        0.851852        0.0921325        0        
C2        C        0.9687500000000001        0.851852        0.0921325        0        
C_FG        C        0.0        0.87037        0.0921325        0.08        
C3        C        0.0625        0.87037        0.0921325        0        
C3        C        0.125        0.87037        0.0921325        0        
C_FG        C        0.1875        0.87037        0.0921325        0.08        
C3        C        0.25        0.87037        0.0921325        0        
C3        C        0.3125        0.87037        0.0921325        0        
C_FG        C        0.375        0.87037        0.0921325        0.08        
C3        C        0.4375        0.87037        0.0921325        0        
C3        C        0.5        0.87037        0.0921325        0        
C_FG        C        0.5625        0.87037        0.0921325        0.08        
C3        C        0.625        0.87037        0.0921325        0        
C3        C        0.6875        0.87037        0.0921325        0        
C_FG        C        0.75        0.87037        0.0921325        0.08        
C3        C        0.8125        0.87037        0.0921325        0        
C3        C        0.875        0.87037        0.0921325        0        
C_FG        C        0.9375        0.87037        0.0921325        0.08        
C4        C        0.03125        0.814814        0.0921325        0        
C4        C        0.09375        0.814814        0.0921325        0        
C4        C        0.15625        0.814814        0.0921325        0        
C4        C        0.21875        0.814814        0.0921325        0        
C4        C        0.28125        0.814814        0.0921325        0        
C4        C        0.34375        0.814814        0.0921325        0        
C4        C        0.40625        0.814814        0.0921325        0        
C4        C        0.46875        0.814814        0.0921325        0        
C4        C        0.53125        0.814814        0.0921325        0        
C4        C        0.59375        0.814814        0.0921325        0        
C4        C        0.65625        0.814814        0.0921325        0        
C4        C        0.71875        0.814814        0.0921325        0        
C4        C        0.78125        0.814814        0.0921325        0        
C4        C        0.84375        0.814814        0.0921325        0        
C4        C        0.9062500000000001        0.814814        0.0921325        0        
C4        C        0.9687500000000001        0.814814        0.0921325        0        
C1        C        0.0        0.907408        0.0921325        0        
C1        C        0.0625        0.907408        0.0921325        0        
C1        C        0.125        0.907408        0.0921325        0        
C1        C        0.1875        0.907408        0.0921325        0        
C1        C        0.25        0.907408        0.0921325        0        
C1        C        0.3125        0.907408        0.0921325        0        
C1        C        0.375        0.907408        0.0921325        0        
C1        C        0.4375        0.907408        0.0921325        0        
C1        C        0.5        0.907408        0.0921325        0        
C1        C        0.5625        0.907408        0.0921325        0        
C1        C        0.625        0.907408        0.0921325        0        
C1        C        0.6875        0.907408        0.0921325        0        
C1        C        0.75        0.907408        0.0921325        0        
C1        C        0.8125        0.907408        0.0921325        0        
C1        C        0.875        0.907408        0.0921325        0        
C1        C        0.9375        0.907408        0.0921325        0        
C2        C        0.03125        0.962963        0.0921325        0        
C2        C        0.09375        0.962963        0.0921325        0        
C2        C        0.15625        0.962963        0.0921325        0        
C2        C        0.21875        0.962963        0.0921325        0        
C2        C        0.28125        0.962963        0.0921325        0        
C2        C        0.34375        0.962963        0.0921325        0        
C2        C        0.40625        0.962963        0.0921325        0        
C2        C        0.46875        0.962963        0.0921325        0        
C2        C        0.53125        0.962963        0.0921325        0        
C2        C        0.59375        0.962963        0.0921325        0        
C2        C        0.65625        0.962963        0.0921325        0        
C2        C        0.71875        0.962963        0.0921325        0        
C2        C        0.78125        0.962963        0.0921325        0        
C2        C        0.84375        0.962963        0.0921325        0        
C2        C        0.9062500000000001        0.962963        0.0921325        0        
C2        C        0.9687500000000001        0.962963        0.0921325        0        
C3        C        0.0        0.9814809999999999        0.0921325        0        
C3        C        0.0625        0.9814809999999999        0.0921325        0        
C3        C        0.125        0.9814809999999999        0.0921325        0        
C3        C        0.1875        0.9814809999999999        0.0921325        0        
C3        C        0.25        0.9814809999999999        0.0921325        0        
C3        C        0.3125        0.9814809999999999        0.0921325        0        
C3        C        0.375        0.9814809999999999        0.0921325        0        
C3        C        0.4375        0.9814809999999999        0.0921325        0        
C3        C        0.5        0.9814809999999999        0.0921325        0        
C3        C        0.5625        0.9814809999999999        0.0921325        0        
C3        C        0.625        0.9814809999999999        0.0921325        0        
C3        C        0.6875        0.9814809999999999        0.0921325        0        
C3        C        0.75        0.9814809999999999        0.0921325        0        
C3        C        0.8125        0.9814809999999999        0.0921325        0        
C3        C        0.875        0.9814809999999999        0.0921325        0        
C3        C        0.9375        0.9814809999999999        0.0921325        0        
C4        C        0.03125        0.925925        0.0921325        0        
C4        C        0.09375        0.925925        0.0921325        0        
C4        C        0.15625        0.925925        0.0921325        0        
C4        C        0.21875        0.925925        0.0921325        0        
C4        C        0.28125        0.925925        0.0921325        0        
C4        C        0.34375        0.925925        0.0921325        0        
C4        C        0.40625        0.925925        0.0921325        0        
C4        C        0.46875        0.925925        0.0921325        0        
C4        C        0.53125        0.925925        0.0921325        0        
C4        C        0.59375        0.925925        0.0921325        0        
C4        C        0.65625        0.925925        0.0921325        0        
C4        C        0.71875        0.925925        0.0921325        0        
C4        C        0.78125        0.925925        0.0921325        0        
C4        C        0.84375        0.925925        0.0921325        0        
C4        C        0.9062500000000001        0.925925        0.0921325        0        
C4        C        0.9687500000000001        0.925925        0.0921325        0        
C1        C        0.0        0.018519        0.2250695        0        
C2        C        0.03125        0.074075        0.2250695        0        
C3        C        0.0        0.092592        0.2250695        0        
C4        C        0.03125        0.037037        0.2250695        0        
C1        C        0.0        0.12963        0.2250695        0        
C2        C        0.03125        0.185185        0.2250695        0        
C3        C        0.0        0.203703        0.2250695        0        
C4        C        0.03125        0.148148        0.2250695        0        
C1        C        0.0        0.24074099999999998        0.2250695        0        
C2        C        0.03125        0.296297        0.2250695        0        
C3        C        0.0        0.314815        0.2250695        0        
C4        C        0.03125        0.259259        0.2250695        0        
C1        C        0.0        0.351852        0.2250695        0        
C2        C        0.03125        0.407408        0.2250695        0        
C3        C        0.0        0.42592500000000005        0.2250695        0        
C4        C        0.03125        0.37037        0.2250695        0        
C1        C        0.0        0.46296300000000007        0.2250695        0        
C2        C        0.03125        0.518519        0.2250695        0        
C3        C        0.0        0.537037        0.2250695        0        
C4        C        0.03125        0.481481        0.2250695        0        
C1        C        0.0        0.574075        0.2250695        0        
C2        C        0.03125        0.62963        0.2250695        0        
C3        C        0.0        0.648148        0.2250695        0        
C4        C        0.03125        0.592592        0.2250695        0        
C1        C        0.0625        0.018519        0.2250695        0        
C2        C        0.09375        0.074075        0.2250695        0        
C3        C        0.0625        0.092592        0.2250695        0        
C4        C        0.09375        0.037037        0.2250695        0        
C1        C        0.0625        0.12963        0.2250695        0        
C2        C        0.09375        0.185185        0.2250695        0        
C3        C        0.0625        0.203703        0.2250695        0        
C4        C        0.09375        0.148148        0.2250695        0        
C1        C        0.0625        0.24074099999999998        0.2250695        0        
C2        C        0.09375        0.296297        0.2250695        0        
C3        C        0.0625        0.314815        0.2250695        0        
C4        C        0.09375        0.259259        0.2250695        0        
C1        C        0.0625        0.351852        0.2250695        0        
C2        C        0.09375        0.407408        0.2250695        0        
C3        C        0.0625        0.42592500000000005        0.2250695        0        
C4        C        0.09375        0.37037        0.2250695        0        
C1        C        0.0625        0.46296300000000007        0.2250695        0        
C2        C        0.09375        0.518519        0.2250695        0        
C3        C        0.0625        0.537037        0.2250695        0        
C4        C        0.09375        0.481481        0.2250695        0        
C1        C        0.0625        0.574075        0.2250695        0        
C2        C        0.09375        0.62963        0.2250695        0        
C3        C        0.0625        0.648148        0.2250695        0        
C4        C        0.09375        0.592592        0.2250695        0        
C1        C        0.125        0.018519        0.2250695        0        
C2        C        0.15625        0.074075        0.2250695        0        
C3        C        0.125        0.092592        0.2250695        0        
C4        C        0.15625        0.037037        0.2250695        0        
C1        C        0.125        0.12963        0.2250695        0        
C2        C        0.15625        0.185185        0.2250695        0        
C3        C        0.125        0.203703        0.2250695        0        
C4        C        0.15625        0.148148        0.2250695        0        
C1        C        0.125        0.24074099999999998        0.2250695        0        
C2        C        0.15625        0.296297        0.2250695        0        
C3        C        0.125        0.314815        0.2250695        0        
C4        C        0.15625        0.259259        0.2250695        0        
C1        C        0.125        0.351852        0.2250695        0        
C2        C        0.15625        0.407408        0.2250695        0        
C3        C        0.125        0.42592500000000005        0.2250695        0        
C4        C        0.15625        0.37037        0.2250695        0        
C1        C        0.125        0.46296300000000007        0.2250695        0        
C2        C        0.15625        0.518519        0.2250695        0        
C3        C        0.125        0.537037        0.2250695        0        
C4        C        0.15625        0.481481        0.2250695        0        
C1        C        0.125        0.574075        0.2250695        0        
C2        C        0.15625        0.62963        0.2250695        0        
C3        C        0.125        0.648148        0.2250695        0        
C4        C        0.15625        0.592592        0.2250695        0        
C1        C        0.1875        0.018519        0.2250695        0        
C2        C        0.21875        0.074075        0.2250695        0        
C3        C        0.1875        0.092592        0.2250695        0        
C4        C        0.21875        0.037037        0.2250695        0        
C1        C        0.1875        0.12963        0.2250695        0        
C2        C        0.21875        0.185185        0.2250695        0        
C3        C        0.1875        0.203703        0.2250695        0        
C4        C        0.21875        0.148148        0.2250695        0        
C1        C        0.1875        0.24074099999999998        0.2250695        0        
C2        C        0.21875        0.296297        0.2250695        0        
C3        C        0.1875        0.314815        0.2250695        0        
C4        C        0.21875        0.259259        0.2250695        0        
C1        C        0.1875        0.351852        0.2250695        0        
C2        C        0.21875        0.407408        0.2250695        0        
C3        C        0.1875        0.42592500000000005        0.2250695        0        
C4        C        0.21875        0.37037        0.2250695        0        
C1        C        0.1875        0.46296300000000007        0.2250695        0        
C2        C        0.21875        0.518519        0.2250695        0        
C3        C        0.1875        0.537037        0.2250695        0        
C4        C        0.21875        0.481481        0.2250695        0        
C1        C        0.1875        0.574075        0.2250695        0        
C2        C        0.21875        0.62963        0.2250695        0        
C3        C        0.1875        0.648148        0.2250695        0        
C4        C        0.21875        0.592592        0.2250695        0        
C1        C        0.25        0.018519        0.2250695        0        
C2        C        0.28125        0.074075        0.2250695        0        
C3        C        0.25        0.092592        0.2250695        0        
C4        C        0.28125        0.037037        0.2250695        0        
C1        C        0.25        0.12963        0.2250695        0        
C2        C        0.28125        0.185185        0.2250695        0        
C3        C        0.25        0.203703        0.2250695        0        
C4        C        0.28125        0.148148        0.2250695        0        
C1        C        0.25        0.24074099999999998        0.2250695        0        
C2        C        0.28125        0.296297        0.2250695        0        
C3        C        0.25        0.314815        0.2250695        0        
C4        C        0.28125        0.259259        0.2250695        0        
C1        C        0.25        0.351852        0.2250695        0        
C2        C        0.28125        0.407408        0.2250695        0        
C3        C        0.25        0.42592500000000005        0.2250695        0        
C4        C        0.28125        0.37037        0.2250695        0        
C1        C        0.25        0.46296300000000007        0.2250695        0        
C2        C        0.28125        0.518519        0.2250695        0        
C3        C        0.25        0.537037        0.2250695        0        
C4        C        0.28125        0.481481        0.2250695        0        
C1        C        0.25        0.574075        0.2250695        0        
C2        C        0.28125        0.62963        0.2250695        0        
C3        C        0.25        0.648148        0.2250695        0        
C4        C        0.28125        0.592592        0.2250695        0        
C1        C        0.3125        0.018519        0.2250695        0        
C2        C        0.34375        0.074075        0.2250695        0        
C3        C        0.3125        0.092592        0.2250695        0        
C4        C        0.34375        0.037037        0.2250695        0        
C1        C        0.3125        0.12963        0.2250695        0        
C2        C        0.34375        0.185185        0.2250695        0        
C3        C        0.3125        0.203703        0.2250695        0        
C4        C        0.34375        0.148148        0.2250695        0        
C1        C        0.3125        0.24074099999999998        0.2250695        0        
C2        C        0.34375        0.296297        0.2250695        0        
C3        C        0.3125        0.314815        0.2250695        0        
C4        C        0.34375        0.259259        0.2250695        0        
C1        C        0.3125        0.351852        0.2250695        0        
C2        C        0.34375        0.407408        0.2250695        0        
C3        C        0.3125        0.42592500000000005        0.2250695        0        
C4        C        0.34375        0.37037        0.2250695        0        
C1        C        0.3125        0.46296300000000007        0.2250695        0        
C2        C        0.34375        0.518519        0.2250695        0        
C3        C        0.3125        0.537037        0.2250695        0        
C4        C        0.34375        0.481481        0.2250695        0        
C1        C        0.3125        0.574075        0.2250695        0        
C2        C        0.34375        0.62963        0.2250695        0        
C3        C        0.3125        0.648148        0.2250695        0        
C4        C        0.34375        0.592592        0.2250695        0        
C1        C        0.375        0.018519        0.2250695        0        
C2        C        0.40625        0.074075        0.2250695        0        
C3        C        0.375        0.092592        0.2250695        0        
C4        C        0.40625        0.037037        0.2250695        0        
C1        C        0.375        0.12963        0.2250695        0        
C2        C        0.40625        0.185185        0.2250695        0        
C3        C        0.375        0.203703        0.2250695        0        
C4        C        0.40625        0.148148        0.2250695        0        
C1        C        0.375        0.24074099999999998        0.2250695        0        
C2        C        0.40625        0.296297        0.2250695        0        
C3        C        0.375        0.314815        0.2250695        0        
C4        C        0.40625        0.259259        0.2250695        0        
C1        C        0.375        0.351852        0.2250695        0        
C2        C        0.40625        0.407408        0.2250695        0        
C3        C        0.375        0.42592500000000005        0.2250695        0        
C4        C        0.40625        0.37037        0.2250695        0        
C1        C        0.375        0.46296300000000007        0.2250695        0        
C2        C        0.40625        0.518519        0.2250695        0        
C3        C        0.375        0.537037        0.2250695        0        
C4        C        0.40625        0.481481        0.2250695        0        
C1        C        0.375        0.574075        0.2250695        0        
C2        C        0.40625        0.62963        0.2250695        0        
C3        C        0.375        0.648148        0.2250695        0        
C4        C        0.40625        0.592592        0.2250695        0        
C1        C        0.4375        0.018519        0.2250695        0        
C2        C        0.46875        0.074075        0.2250695        0        
C3        C        0.4375        0.092592        0.2250695        0        
C4        C        0.46875        0.037037        0.2250695        0        
C1        C        0.4375        0.12963        0.2250695        0        
C2        C        0.46875        0.185185        0.2250695        0        
C3        C        0.4375        0.203703        0.2250695        0        
C4        C        0.46875        0.148148        0.2250695        0        
C1        C        0.4375        0.24074099999999998        0.2250695        0        
C2        C        0.46875        0.296297        0.2250695        0        
C3        C        0.4375        0.314815        0.2250695        0        
C4        C        0.46875        0.259259        0.2250695        0        
C1        C        0.4375        0.351852        0.2250695        0        
C2        C        0.46875        0.407408        0.2250695        0        
C3        C        0.4375        0.42592500000000005        0.2250695        0        
C4        C        0.46875        0.37037        0.2250695        0        
C1        C        0.4375        0.46296300000000007        0.2250695        0        
C2        C        0.46875        0.518519        0.2250695        0        
C3        C        0.4375        0.537037        0.2250695        0        
C4        C        0.46875        0.481481        0.2250695        0        
C1        C        0.4375        0.574075        0.2250695        0        
C2        C        0.46875        0.62963        0.2250695        0        
C3        C        0.4375        0.648148        0.2250695        0        
C4        C        0.46875        0.592592        0.2250695        0        
C1        C        0.5        0.018519        0.2250695        0        
C2        C        0.53125        0.074075        0.2250695        0        
C3        C        0.5        0.092592        0.2250695        0        
C4        C        0.53125        0.037037        0.2250695        0        
C1        C        0.5        0.12963        0.2250695        0        
C2        C        0.53125        0.185185        0.2250695        0        
C3        C        0.5        0.203703        0.2250695        0        
C4        C        0.53125        0.148148        0.2250695        0        
C1        C        0.5        0.24074099999999998        0.2250695        0        
C2        C        0.53125        0.296297        0.2250695        0        
C3        C        0.5        0.314815        0.2250695        0        
C4        C        0.53125        0.259259        0.2250695        0        
C1        C        0.5        0.351852        0.2250695        0        
C2        C        0.53125        0.407408        0.2250695        0        
C3        C        0.5        0.42592500000000005        0.2250695        0        
C4        C        0.53125        0.37037        0.2250695        0        
C1        C        0.5        0.46296300000000007        0.2250695        0        
C2        C        0.53125        0.518519        0.2250695        0        
C3        C        0.5        0.537037        0.2250695        0        
C4        C        0.53125        0.481481        0.2250695        0        
C1        C        0.5        0.574075        0.2250695        0        
C2        C        0.53125        0.62963        0.2250695        0        
C3        C        0.5        0.648148        0.2250695        0        
C4        C        0.53125        0.592592        0.2250695        0        
C1        C        0.5625        0.018519        0.2250695        0        
C2        C        0.59375        0.074075        0.2250695        0        
C3        C        0.5625        0.092592        0.2250695        0        
C4        C        0.59375        0.037037        0.2250695        0        
C1        C        0.5625        0.12963        0.2250695        0        
C2        C        0.59375        0.185185        0.2250695        0        
C3        C        0.5625        0.203703        0.2250695        0        
C4        C        0.59375        0.148148        0.2250695        0        
C1        C        0.5625        0.24074099999999998        0.2250695        0        
C2        C        0.59375        0.296297        0.2250695        0        
C3        C        0.5625        0.314815        0.2250695        0        
C4        C        0.59375        0.259259        0.2250695        0        
C1        C        0.5625        0.351852        0.2250695        0        
C2        C        0.59375        0.407408        0.2250695        0        
C3        C        0.5625        0.42592500000000005        0.2250695        0        
C4        C        0.59375        0.37037        0.2250695        0        
C1        C        0.5625        0.46296300000000007        0.2250695        0        
C2        C        0.59375        0.518519        0.2250695        0        
C3        C        0.5625        0.537037        0.2250695        0        
C4        C        0.59375        0.481481        0.2250695        0        
C1        C        0.5625        0.574075        0.2250695        0        
C2        C        0.59375        0.62963        0.2250695        0        
C3        C        0.5625        0.648148        0.2250695        0        
C4        C        0.59375        0.592592        0.2250695        0        
C1        C        0.625        0.018519        0.2250695        0        
C2        C        0.65625        0.074075        0.2250695        0        
C3        C        0.625        0.092592        0.2250695        0        
C4        C        0.65625        0.037037        0.2250695        0        
C1        C        0.625        0.12963        0.2250695        0        
C2        C        0.65625        0.185185        0.2250695        0        
C3        C        0.625        0.203703        0.2250695        0        
C4        C        0.65625        0.148148        0.2250695        0        
C1        C        0.625        0.24074099999999998        0.2250695        0        
C2        C        0.65625        0.296297        0.2250695        0        
C3        C        0.625        0.314815        0.2250695        0        
C4        C        0.65625        0.259259        0.2250695        0        
C1        C        0.625        0.351852        0.2250695        0        
C2        C        0.65625        0.407408        0.2250695        0        
C3        C        0.625        0.42592500000000005        0.2250695        0        
C4        C        0.65625        0.37037        0.2250695        0        
C1        C        0.625        0.46296300000000007        0.2250695        0        
C2        C        0.65625        0.518519        0.2250695        0        
C3        C        0.625        0.537037        0.2250695        0        
C4        C        0.65625        0.481481        0.2250695        0        
C1        C        0.625        0.574075        0.2250695        0        
C2        C        0.65625        0.62963        0.2250695        0        
C3        C        0.625        0.648148        0.2250695        0        
C4        C        0.65625        0.592592        0.2250695        0        
C1        C        0.6875        0.018519        0.2250695        0        
C2        C        0.71875        0.074075        0.2250695        0        
C3        C        0.6875        0.092592        0.2250695        0        
C4        C        0.71875        0.037037        0.2250695        0        
C1        C        0.6875        0.12963        0.2250695        0        
C2        C        0.71875        0.185185        0.2250695        0        
C3        C        0.6875        0.203703        0.2250695        0        
C4        C        0.71875        0.148148        0.2250695        0        
C1        C        0.6875        0.24074099999999998        0.2250695        0        
C2        C        0.71875        0.296297        0.2250695        0        
C3        C        0.6875        0.314815        0.2250695        0        
C4        C        0.71875        0.259259        0.2250695        0        
C1        C        0.6875        0.351852        0.2250695        0        
C2        C        0.71875        0.407408        0.2250695        0        
C3        C        0.6875        0.42592500000000005        0.2250695        0        
C4        C        0.71875        0.37037        0.2250695        0        
C1        C        0.6875        0.46296300000000007        0.2250695        0        
C2        C        0.71875        0.518519        0.2250695        0        
C3        C        0.6875        0.537037        0.2250695        0        
C4        C        0.71875        0.481481        0.2250695        0        
C1        C        0.6875        0.574075        0.2250695        0        
C2        C        0.71875        0.62963        0.2250695        0        
C3        C        0.6875        0.648148        0.2250695        0        
C4        C        0.71875        0.592592        0.2250695        0        
C1        C        0.75        0.018519        0.2250695        0        
C2        C        0.78125        0.074075        0.2250695        0        
C3        C        0.75        0.092592        0.2250695        0        
C4        C        0.78125        0.037037        0.2250695        0        
C1        C        0.75        0.12963        0.2250695        0        
C2        C        0.78125        0.185185        0.2250695        0        
C3        C        0.75        0.203703        0.2250695        0        
C4        C        0.78125        0.148148        0.2250695        0        
C1        C        0.75        0.24074099999999998        0.2250695        0        
C2        C        0.78125        0.296297        0.2250695        0        
C3        C        0.75        0.314815        0.2250695        0        
C4        C        0.78125        0.259259        0.2250695        0        
C1        C        0.75        0.351852        0.2250695        0        
C2        C        0.78125        0.407408        0.2250695        0        
C3        C        0.75        0.42592500000000005        0.2250695        0        
C4        C        0.78125        0.37037        0.2250695        0        
C1        C        0.75        0.46296300000000007        0.2250695        0        
C2        C        0.78125        0.518519        0.2250695        0        
C3        C        0.75        0.537037        0.2250695        0        
C4        C        0.78125        0.481481        0.2250695        0        
C1        C        0.75        0.574075        0.2250695        0        
C2        C        0.78125        0.62963        0.2250695        0        
C3        C        0.75        0.648148        0.2250695        0        
C4        C        0.78125        0.592592        0.2250695        0        
C1        C        0.8125        0.018519        0.2250695        0        
C2        C        0.84375        0.074075        0.2250695        0        
C3        C        0.8125        0.092592        0.2250695        0        
C4        C        0.84375        0.037037        0.2250695        0        
C1        C        0.8125        0.12963        0.2250695        0        
C2        C        0.84375        0.185185        0.2250695        0        
C3        C        0.8125        0.203703        0.2250695        0        
C4        C        0.84375        0.148148        0.2250695        0        
C1        C        0.8125        0.24074099999999998        0.2250695        0        
C2        C        0.84375        0.296297        0.2250695        0        
C3        C        0.8125        0.314815        0.2250695        0        
C4        C        0.84375        0.259259        0.2250695        0        
C1        C        0.8125        0.351852        0.2250695        0        
C2        C        0.84375        0.407408        0.2250695        0        
C3        C        0.8125        0.42592500000000005        0.2250695        0        
C4        C        0.84375        0.37037        0.2250695        0        
C1        C        0.8125        0.46296300000000007        0.2250695        0        
C2        C        0.84375        0.518519        0.2250695        0        
C3        C        0.8125        0.537037        0.2250695        0        
C4        C        0.84375        0.481481        0.2250695        0        
C1        C        0.8125        0.574075        0.2250695        0        
C2        C        0.84375        0.62963        0.2250695        0        
C3        C        0.8125        0.648148        0.2250695        0        
C4        C        0.84375        0.592592        0.2250695        0        
C1        C        0.875        0.018519        0.2250695        0        
C2        C        0.9062500000000001        0.074075        0.2250695        0        
C3        C        0.875        0.092592        0.2250695        0        
C4        C        0.9062500000000001        0.037037        0.2250695        0        
C1        C        0.875        0.12963        0.2250695        0        
C2        C        0.9062500000000001        0.185185        0.2250695        0        
C3        C        0.875        0.203703        0.2250695        0        
C4        C        0.9062500000000001        0.148148        0.2250695        0        
C1        C        0.875        0.24074099999999998        0.2250695        0        
C2        C        0.9062500000000001        0.296297        0.2250695        0        
C3        C        0.875        0.314815        0.2250695        0        
C4        C        0.9062500000000001        0.259259        0.2250695        0        
C1        C        0.875        0.351852        0.2250695        0        
C2        C        0.9062500000000001        0.407408        0.2250695        0        
C3        C        0.875        0.42592500000000005        0.2250695        0        
C4        C        0.9062500000000001        0.37037        0.2250695        0        
C1        C        0.875        0.46296300000000007        0.2250695        0        
C2        C        0.9062500000000001        0.518519        0.2250695        0        
C3        C        0.875        0.537037        0.2250695        0        
C4        C        0.9062500000000001        0.481481        0.2250695        0        
C1        C        0.875        0.574075        0.2250695        0        
C2        C        0.9062500000000001        0.62963        0.2250695        0        
C3        C        0.875        0.648148        0.2250695        0        
C4        C        0.9062500000000001        0.592592        0.2250695        0        
C1        C        0.9375        0.018519        0.2250695        0        
C2        C        0.9687500000000001        0.074075        0.2250695        0        
C3        C        0.9375        0.092592        0.2250695        0        
C4        C        0.9687500000000001        0.037037        0.2250695        0        
C1        C        0.9375        0.12963        0.2250695        0        
C2        C        0.9687500000000001        0.185185        0.2250695        0        
C3        C        0.9375        0.203703        0.2250695        0        
C4        C        0.9687500000000001        0.148148        0.2250695        0        
C1        C        0.9375        0.24074099999999998        0.2250695        0        
C2        C        0.9687500000000001        0.296297        0.2250695        0        
C3        C        0.9375        0.314815        0.2250695        0        
C4        C        0.9687500000000001        0.259259        0.2250695        0        
C1        C        0.9375        0.351852        0.2250695        0        
C2        C        0.9687500000000001        0.407408        0.2250695        0        
C3        C        0.9375        0.42592500000000005        0.2250695        0        
C4        C        0.9687500000000001        0.37037        0.2250695        0        
C1        C        0.9375        0.46296300000000007        0.2250695        0        
C2        C        0.9687500000000001        0.518519        0.2250695        0        
C3        C        0.9375        0.537037        0.2250695        0        
C4        C        0.9687500000000001        0.481481        0.2250695        0        
C1        C        0.9375        0.574075        0.2250695        0        
C2        C        0.9687500000000001        0.62963        0.2250695        0        
C3        C        0.9375        0.648148        0.2250695        0        
C4        C        0.9687500000000001        0.592592        0.2250695        0        
C1        C        0.0        0.685186        0.2250695        0        
C1        C        0.0625        0.685186        0.2250695        0        
C1        C        0.125        0.685186        0.2250695        0        
C1        C        0.1875        0.685186        0.2250695        0        
C1        C        0.25        0.685186        0.2250695        0        
C1        C        0.3125        0.685186        0.2250695        0        
C1        C        0.375        0.685186        0.2250695        0        
C1        C        0.4375        0.685186        0.2250695        0        
C1        C        0.5        0.685186        0.2250695        0        
C1        C        0.5625        0.685186        0.2250695        0        
C1        C        0.625        0.685186        0.2250695        0        
C1        C        0.6875        0.685186        0.2250695        0        
C1        C        0.75        0.685186        0.2250695        0        
C1        C        0.8125        0.685186        0.2250695        0        
C1        C        0.875        0.685186        0.2250695        0        
C1        C        0.9375        0.685186        0.2250695        0        
C2        C        0.03125        0.740741        0.2250695        0        
C2        C        0.09375        0.740741        0.2250695        0        
C2        C        0.15625        0.740741        0.2250695        0        
C2        C        0.21875        0.740741        0.2250695        0        
C2        C        0.28125        0.740741        0.2250695        0        
C2        C        0.34375        0.740741        0.2250695        0        
C2        C        0.40625        0.740741        0.2250695        0        
C2        C        0.46875        0.740741        0.2250695        0        
C2        C        0.53125        0.740741        0.2250695        0        
C2        C        0.59375        0.740741        0.2250695        0        
C2        C        0.65625        0.740741        0.2250695        0        
C2        C        0.71875        0.740741        0.2250695        0        
C2        C        0.78125        0.740741        0.2250695        0        
C2        C        0.84375        0.740741        0.2250695        0        
C2        C        0.9062500000000001        0.740741        0.2250695        0        
C2        C        0.9687500000000001        0.740741        0.2250695        0        
C3        C        0.0        0.759259        0.2250695        0        
C3        C        0.0625        0.759259        0.2250695        0        
C3        C        0.125        0.759259        0.2250695        0        
C3        C        0.1875        0.759259        0.2250695        0        
C3        C        0.25        0.759259        0.2250695        0        
C3        C        0.3125        0.759259        0.2250695        0        
C3        C        0.375        0.759259        0.2250695        0        
C3        C        0.4375        0.759259        0.2250695        0        
C3        C        0.5        0.759259        0.2250695        0        
C3        C        0.5625        0.759259        0.2250695        0        
C3        C        0.625        0.759259        0.2250695        0        
C3        C        0.6875        0.759259        0.2250695        0        
C3        C        0.75        0.759259        0.2250695        0        
C3        C        0.8125        0.759259        0.2250695        0        
C3        C        0.875        0.759259        0.2250695        0        
C3        C        0.9375        0.759259        0.2250695        0        
C4        C        0.03125        0.703703        0.2250695        0        
C4        C        0.09375        0.703703        0.2250695        0        
C4        C        0.15625        0.703703        0.2250695        0        
C4        C        0.21875        0.703703        0.2250695        0        
C4        C        0.28125        0.703703        0.2250695        0        
C4        C        0.34375        0.703703        0.2250695        0        
C4        C        0.40625        0.703703        0.2250695        0        
C4        C        0.46875        0.703703        0.2250695        0        
C4        C        0.53125        0.703703        0.2250695        0        
C4        C        0.59375        0.703703        0.2250695        0        
C4        C        0.65625        0.703703        0.2250695        0        
C4        C        0.71875        0.703703        0.2250695        0        
C4        C        0.78125        0.703703        0.2250695        0        
C4        C        0.84375        0.703703        0.2250695        0        
C4        C        0.9062500000000001        0.703703        0.2250695        0        
C4        C        0.9687500000000001        0.703703        0.2250695        0        
C1        C        0.0        0.796297        0.2250695        0        
C1        C        0.0625        0.796297        0.2250695        0        
C1        C        0.125        0.796297        0.2250695        0        
C1        C        0.1875        0.796297        0.2250695        0        
C1        C        0.25        0.796297        0.2250695        0        
C1        C        0.3125        0.796297        0.2250695        0        
C1        C        0.375        0.796297        0.2250695        0        
C1        C        0.4375        0.796297        0.2250695        0        
C1        C        0.5        0.796297        0.2250695        0        
C1        C        0.5625        0.796297        0.2250695        0        
C1        C        0.625        0.796297        0.2250695        0        
C1        C        0.6875        0.796297        0.2250695        0        
C1        C        0.75        0.796297        0.2250695        0        
C1        C        0.8125        0.796297        0.2250695        0        
C1        C        0.875        0.796297        0.2250695        0        
C1        C        0.9375        0.796297        0.2250695        0        
C2        C        0.03125        0.851852        0.2250695        0        
C2        C        0.09375        0.851852        0.2250695        0        
C2        C        0.15625        0.851852        0.2250695        0        
C2        C        0.21875        0.851852        0.2250695        0        
C2        C        0.28125        0.851852        0.2250695        0        
C2        C        0.34375        0.851852        0.2250695        0        
C2        C        0.40625        0.851852        0.2250695        0        
C2        C        0.46875        0.851852        0.2250695        0        
C2        C        0.53125        0.851852        0.2250695        0        
C2        C        0.59375        0.851852        0.2250695        0        
C2        C        0.65625        0.851852        0.2250695        0        
C2        C        0.71875        0.851852        0.2250695        0        
C2        C        0.78125        0.851852        0.2250695        0        
C2        C        0.84375        0.851852        0.2250695        0        
C2        C        0.9062500000000001        0.851852        0.2250695        0        
C2        C        0.9687500000000001        0.851852        0.2250695        0        
C3        C        0.0        0.87037        0.2250695        0        
C3        C        0.0625        0.87037        0.2250695        0        
C3        C        0.125        0.87037        0.2250695        0        
C3        C        0.1875        0.87037        0.2250695        0        
C3        C        0.25        0.87037        0.2250695        0        
C3        C        0.3125        0.87037        0.2250695        0        
C3        C        0.375        0.87037        0.2250695        0        
C3        C        0.4375        0.87037        0.2250695        0        
C3        C        0.5        0.87037        0.2250695        0        
C3        C        0.5625        0.87037        0.2250695        0        
C3        C        0.625        0.87037        0.2250695        0        
C3        C        0.6875        0.87037        0.2250695        0        
C3        C        0.75        0.87037        0.2250695        0        
C3        C        0.8125        0.87037        0.2250695        0        
C3        C        0.875        0.87037        0.2250695        0        
C3        C        0.9375        0.87037        0.2250695        0        
C4        C        0.03125        0.814814        0.2250695        0        
C4        C        0.09375        0.814814        0.2250695        0        
C4        C        0.15625        0.814814        0.2250695        0        
C4        C        0.21875        0.814814        0.2250695        0        
C4        C        0.28125        0.814814        0.2250695        0        
C4        C        0.34375        0.814814        0.2250695        0        
C4        C        0.40625        0.814814        0.2250695        0        
C4        C        0.46875        0.814814        0.2250695        0        
C4        C        0.53125        0.814814        0.2250695        0        
C4        C        0.59375        0.814814        0.2250695        0        
C4        C        0.65625        0.814814        0.2250695        0        
C4        C        0.71875        0.814814        0.2250695        0        
C4        C        0.78125        0.814814        0.2250695        0        
C4        C        0.84375        0.814814        0.2250695        0        
C4        C        0.9062500000000001        0.814814        0.2250695        0        
C4        C        0.9687500000000001        0.814814        0.2250695        0        
C1        C        0.0        0.907408        0.2250695        0        
C1        C        0.0625        0.907408        0.2250695        0        
C1        C        0.125        0.907408        0.2250695        0        
C1        C        0.1875        0.907408        0.2250695        0        
C1        C        0.25        0.907408        0.2250695        0        
C1        C        0.3125        0.907408        0.2250695        0        
C1        C        0.375        0.907408        0.2250695        0        
C1        C        0.4375        0.907408        0.2250695        0        
C1        C        0.5        0.907408        0.2250695        0        
C1        C        0.5625        0.907408        0.2250695        0        
C1        C        0.625        0.907408        0.2250695        0        
C1        C        0.6875        0.907408        0.2250695        0        
C1        C        0.75        0.907408        0.2250695        0        
C1        C        0.8125        0.907408        0.2250695        0        
C1        C        0.875        0.907408        0.2250695        0        
C1        C        0.9375        0.907408        0.2250695        0        
C2        C        0.03125        0.962963        0.2250695        0        
C2        C        0.09375        0.962963        0.2250695        0        
C2        C        0.15625        0.962963        0.2250695        0        
C2        C        0.21875        0.962963        0.2250695        0        
C2        C        0.28125        0.962963        0.2250695        0        
C2        C        0.34375        0.962963        0.2250695        0        
C2        C        0.40625        0.962963        0.2250695        0        
C2        C        0.46875        0.962963        0.2250695        0        
C2        C        0.53125        0.962963        0.2250695        0        
C2        C        0.59375        0.962963        0.2250695        0        
C2        C        0.65625        0.962963        0.2250695        0        
C2        C        0.71875        0.962963        0.2250695        0        
C2        C        0.78125        0.962963        0.2250695        0        
C2        C        0.84375        0.962963        0.2250695        0        
C2        C        0.9062500000000001        0.962963        0.2250695        0        
C2        C        0.9687500000000001        0.962963        0.2250695        0        
C3        C        0.0        0.9814809999999999        0.2250695        0        
C3        C        0.0625        0.9814809999999999        0.2250695        0        
C3        C        0.125        0.9814809999999999        0.2250695        0        
C3        C        0.1875        0.9814809999999999        0.2250695        0        
C3        C        0.25        0.9814809999999999        0.2250695        0        
C3        C        0.3125        0.9814809999999999        0.2250695        0        
C3        C        0.375        0.9814809999999999        0.2250695        0        
C3        C        0.4375        0.9814809999999999        0.2250695        0        
C3        C        0.5        0.9814809999999999        0.2250695        0        
C3        C        0.5625        0.9814809999999999        0.2250695        0        
C3        C        0.625        0.9814809999999999        0.2250695        0        
C3        C        0.6875        0.9814809999999999        0.2250695        0        
C3        C        0.75        0.9814809999999999        0.2250695        0        
C3        C        0.8125        0.9814809999999999        0.2250695        0        
C3        C        0.875        0.9814809999999999        0.2250695        0        
C3        C        0.9375        0.9814809999999999        0.2250695        0        
C4        C        0.03125        0.925925        0.2250695        0        
C4        C        0.09375        0.925925        0.2250695        0        
C4        C        0.15625        0.925925        0.2250695        0        
C4        C        0.21875        0.925925        0.2250695        0        
C4        C        0.28125        0.925925        0.2250695        0        
C4        C        0.34375        0.925925        0.2250695        0        
C4        C        0.40625        0.925925        0.2250695        0        
C4        C        0.46875        0.925925        0.2250695        0        
C4        C        0.53125        0.925925        0.2250695        0        
C4        C        0.59375        0.925925        0.2250695        0        
C4        C        0.65625        0.925925        0.2250695        0        
C4        C        0.71875        0.925925        0.2250695        0        
C4        C        0.78125        0.925925        0.2250695        0        
C4        C        0.84375        0.925925        0.2250695        0        
C4        C        0.9062500000000001        0.925925        0.2250695        0        
C4        C        0.9687500000000001        0.925925        0.2250695        0        
C_FG        C        0.0        0.018519        0.35800550000000003        0.08        
C2        C        0.03125        0.074075        0.35800550000000003        0        
C3        C        0.0        0.092592        0.35800550000000003        0        
C4        C        0.03125        0.037037        0.35800550000000003        0        
C1        C        0.0        0.12963        0.35800550000000003        0        
C2        C        0.03125        0.185185        0.35800550000000003        0        
C_FG        C        0.0        0.203703        0.35800550000000003        0.08        
C4        C        0.03125        0.148148        0.35800550000000003        0        
C1        C        0.0        0.24074099999999998        0.35800550000000003        0        
C2        C        0.03125        0.296297        0.35800550000000003        0        
C3        C        0.0        0.314815        0.35800550000000003        0        
C4        C        0.03125        0.259259        0.35800550000000003        0        
C_FG        C        0.0        0.351852        0.35800550000000003        0.08        
C2        C        0.03125        0.407408        0.35800550000000003        0        
C3        C        0.0        0.42592500000000005        0.35800550000000003        0        
C4        C        0.03125        0.37037        0.35800550000000003        0        
C1        C        0.0        0.46296300000000007        0.35800550000000003        0        
C2        C        0.03125        0.518519        0.35800550000000003        0        
C_FG        C        0.0        0.537037        0.35800550000000003        0.08        
C4        C        0.03125        0.481481        0.35800550000000003        0        
C1        C        0.0        0.574075        0.35800550000000003        0        
C2        C        0.03125        0.62963        0.35800550000000003        0        
C3        C        0.0        0.648148        0.35800550000000003        0        
C4        C        0.03125        0.592592        0.35800550000000003        0        
C1        C        0.0625        0.018519        0.35800550000000003        0        
C2        C        0.09375        0.074075        0.35800550000000003        0        
C3        C        0.0625        0.092592        0.35800550000000003        0        
C4        C        0.09375        0.037037        0.35800550000000003        0        
C1        C        0.0625        0.12963        0.35800550000000003        0        
C2        C        0.09375        0.185185        0.35800550000000003        0        
C3        C        0.0625        0.203703        0.35800550000000003        0        
C4        C        0.09375        0.148148        0.35800550000000003        0        
C1        C        0.0625        0.24074099999999998        0.35800550000000003        0        
C2        C        0.09375        0.296297        0.35800550000000003        0        
C3        C        0.0625        0.314815        0.35800550000000003        0        
C4        C        0.09375        0.259259        0.35800550000000003        0        
C1        C        0.0625        0.351852        0.35800550000000003        0        
C2        C        0.09375        0.407408        0.35800550000000003        0        
C3        C        0.0625        0.42592500000000005        0.35800550000000003        0        
C4        C        0.09375        0.37037        0.35800550000000003        0        
C1        C        0.0625        0.46296300000000007        0.35800550000000003        0        
C2        C        0.09375        0.518519        0.35800550000000003        0        
C3        C        0.0625        0.537037        0.35800550000000003        0        
C4        C        0.09375        0.481481        0.35800550000000003        0        
C1        C        0.0625        0.574075        0.35800550000000003        0        
C2        C        0.09375        0.62963        0.35800550000000003        0        
C3        C        0.0625        0.648148        0.35800550000000003        0        
C4        C        0.09375        0.592592        0.35800550000000003        0        
C1        C        0.125        0.018519        0.35800550000000003        0        
C2        C        0.15625        0.074075        0.35800550000000003        0        
C3        C        0.125        0.092592        0.35800550000000003        0        
C4        C        0.15625        0.037037        0.35800550000000003        0        
C1        C        0.125        0.12963        0.35800550000000003        0        
C2        C        0.15625        0.185185        0.35800550000000003        0        
C3        C        0.125        0.203703        0.35800550000000003        0        
C4        C        0.15625        0.148148        0.35800550000000003        0        
C1        C        0.125        0.24074099999999998        0.35800550000000003        0        
C2        C        0.15625        0.296297        0.35800550000000003        0        
C3        C        0.125        0.314815        0.35800550000000003        0        
C4        C        0.15625        0.259259        0.35800550000000003        0        
C1        C        0.125        0.351852        0.35800550000000003        0        
C2        C        0.15625        0.407408        0.35800550000000003        0        
C3        C        0.125        0.42592500000000005        0.35800550000000003        0        
C4        C        0.15625        0.37037        0.35800550000000003        0        
C1        C        0.125        0.46296300000000007        0.35800550000000003        0        
C2        C        0.15625        0.518519        0.35800550000000003        0        
C3        C        0.125        0.537037        0.35800550000000003        0        
C4        C        0.15625        0.481481        0.35800550000000003        0        
C1        C        0.125        0.574075        0.35800550000000003        0        
C2        C        0.15625        0.62963        0.35800550000000003        0        
C3        C        0.125        0.648148        0.35800550000000003        0        
C4        C        0.15625        0.592592        0.35800550000000003        0        
C_FG        C        0.1875        0.018519        0.35800550000000003        0.08        
C2        C        0.21875        0.074075        0.35800550000000003        0        
C3        C        0.1875        0.092592        0.35800550000000003        0        
C4        C        0.21875        0.037037        0.35800550000000003        0        
C1        C        0.1875        0.12963        0.35800550000000003        0        
C2        C        0.21875        0.185185        0.35800550000000003        0        
C_FG        C        0.1875        0.203703        0.35800550000000003        0.08        
C4        C        0.21875        0.148148        0.35800550000000003        0        
C1        C        0.1875        0.24074099999999998        0.35800550000000003        0        
C2        C        0.21875        0.296297        0.35800550000000003        0        
C3        C        0.1875        0.314815        0.35800550000000003        0        
C4        C        0.21875        0.259259        0.35800550000000003        0        
C_FG        C        0.1875        0.351852        0.35800550000000003        0.08        
C2        C        0.21875        0.407408        0.35800550000000003        0        
C3        C        0.1875        0.42592500000000005        0.35800550000000003        0        
C4        C        0.21875        0.37037        0.35800550000000003        0        
C1        C        0.1875        0.46296300000000007        0.35800550000000003        0        
C2        C        0.21875        0.518519        0.35800550000000003        0        
C_FG        C        0.1875        0.537037        0.35800550000000003        0.08        
C4        C        0.21875        0.481481        0.35800550000000003        0        
C1        C        0.1875        0.574075        0.35800550000000003        0        
C2        C        0.21875        0.62963        0.35800550000000003        0        
C3        C        0.1875        0.648148        0.35800550000000003        0        
C4        C        0.21875        0.592592        0.35800550000000003        0        
C1        C        0.25        0.018519        0.35800550000000003        0        
C2        C        0.28125        0.074075        0.35800550000000003        0        
C3        C        0.25        0.092592        0.35800550000000003        0        
C4        C        0.28125        0.037037        0.35800550000000003        0        
C1        C        0.25        0.12963        0.35800550000000003        0        
C2        C        0.28125        0.185185        0.35800550000000003        0        
C3        C        0.25        0.203703        0.35800550000000003        0        
C4        C        0.28125        0.148148        0.35800550000000003        0        
C1        C        0.25        0.24074099999999998        0.35800550000000003        0        
C2        C        0.28125        0.296297        0.35800550000000003        0        
C3        C        0.25        0.314815        0.35800550000000003        0        
C4        C        0.28125        0.259259        0.35800550000000003        0        
C1        C        0.25        0.351852        0.35800550000000003        0        
C2        C        0.28125        0.407408        0.35800550000000003        0        
C3        C        0.25        0.42592500000000005        0.35800550000000003        0        
C4        C        0.28125        0.37037        0.35800550000000003        0        
C1        C        0.25        0.46296300000000007        0.35800550000000003        0        
C2        C        0.28125        0.518519        0.35800550000000003        0        
C3        C        0.25        0.537037        0.35800550000000003        0        
C4        C        0.28125        0.481481        0.35800550000000003        0        
C1        C        0.25        0.574075        0.35800550000000003        0        
C2        C        0.28125        0.62963        0.35800550000000003        0        
C3        C        0.25        0.648148        0.35800550000000003        0        
C4        C        0.28125        0.592592        0.35800550000000003        0        
C1        C        0.3125        0.018519        0.35800550000000003        0        
C2        C        0.34375        0.074075        0.35800550000000003        0        
C3        C        0.3125        0.092592        0.35800550000000003        0        
C4        C        0.34375        0.037037        0.35800550000000003        0        
C1        C        0.3125        0.12963        0.35800550000000003        0        
C2        C        0.34375        0.185185        0.35800550000000003        0        
C3        C        0.3125        0.203703        0.35800550000000003        0        
C4        C        0.34375        0.148148        0.35800550000000003        0        
C1        C        0.3125        0.24074099999999998        0.35800550000000003        0        
C2        C        0.34375        0.296297        0.35800550000000003        0        
C3        C        0.3125        0.314815        0.35800550000000003        0        
C4        C        0.34375        0.259259        0.35800550000000003        0        
C1        C        0.3125        0.351852        0.35800550000000003        0        
C2        C        0.34375        0.407408        0.35800550000000003        0        
C3        C        0.3125        0.42592500000000005        0.35800550000000003        0        
C4        C        0.34375        0.37037        0.35800550000000003        0        
C1        C        0.3125        0.46296300000000007        0.35800550000000003        0        
C2        C        0.34375        0.518519        0.35800550000000003        0        
C3        C        0.3125        0.537037        0.35800550000000003        0        
C4        C        0.34375        0.481481        0.35800550000000003        0        
C1        C        0.3125        0.574075        0.35800550000000003        0        
C2        C        0.34375        0.62963        0.35800550000000003        0        
C3        C        0.3125        0.648148        0.35800550000000003        0        
C4        C        0.34375        0.592592        0.35800550000000003        0        
C_FG        C        0.375        0.018519        0.35800550000000003        0.08        
C2        C        0.40625        0.074075        0.35800550000000003        0        
C3        C        0.375        0.092592        0.35800550000000003        0        
C4        C        0.40625        0.037037        0.35800550000000003        0        
C1        C        0.375        0.12963        0.35800550000000003        0        
C2        C        0.40625        0.185185        0.35800550000000003        0        
C_FG        C        0.375        0.203703        0.35800550000000003        0.08        
C4        C        0.40625        0.148148        0.35800550000000003        0        
C1        C        0.375        0.24074099999999998        0.35800550000000003        0        
C2        C        0.40625        0.296297        0.35800550000000003        0        
C3        C        0.375        0.314815        0.35800550000000003        0        
C4        C        0.40625        0.259259        0.35800550000000003        0        
C_FG        C        0.375        0.351852        0.35800550000000003        0.08        
C2        C        0.40625        0.407408        0.35800550000000003        0        
C3        C        0.375        0.42592500000000005        0.35800550000000003        0        
C4        C        0.40625        0.37037        0.35800550000000003        0        
C1        C        0.375        0.46296300000000007        0.35800550000000003        0        
C2        C        0.40625        0.518519        0.35800550000000003        0        
C_FG        C        0.375        0.537037        0.35800550000000003        0.08        
C4        C        0.40625        0.481481        0.35800550000000003        0        
C1        C        0.375        0.574075        0.35800550000000003        0        
C2        C        0.40625        0.62963        0.35800550000000003        0        
C3        C        0.375        0.648148        0.35800550000000003        0        
C4        C        0.40625        0.592592        0.35800550000000003        0        
C1        C        0.4375        0.018519        0.35800550000000003        0        
C2        C        0.46875        0.074075        0.35800550000000003        0        
C3        C        0.4375        0.092592        0.35800550000000003        0        
C4        C        0.46875        0.037037        0.35800550000000003        0        
C1        C        0.4375        0.12963        0.35800550000000003        0        
C2        C        0.46875        0.185185        0.35800550000000003        0        
C3        C        0.4375        0.203703        0.35800550000000003        0        
C4        C        0.46875        0.148148        0.35800550000000003        0        
C1        C        0.4375        0.24074099999999998        0.35800550000000003        0        
C2        C        0.46875        0.296297        0.35800550000000003        0        
C3        C        0.4375        0.314815        0.35800550000000003        0        
C4        C        0.46875        0.259259        0.35800550000000003        0        
C1        C        0.4375        0.351852        0.35800550000000003        0        
C2        C        0.46875        0.407408        0.35800550000000003        0        
C3        C        0.4375        0.42592500000000005        0.35800550000000003        0        
C4        C        0.46875        0.37037        0.35800550000000003        0        
C1        C        0.4375        0.46296300000000007        0.35800550000000003        0        
C2        C        0.46875        0.518519        0.35800550000000003        0        
C3        C        0.4375        0.537037        0.35800550000000003        0        
C4        C        0.46875        0.481481        0.35800550000000003        0        
C1        C        0.4375        0.574075        0.35800550000000003        0        
C2        C        0.46875        0.62963        0.35800550000000003        0        
C3        C        0.4375        0.648148        0.35800550000000003        0        
C4        C        0.46875        0.592592        0.35800550000000003        0        
C1        C        0.5        0.018519        0.35800550000000003        0        
C2        C        0.53125        0.074075        0.35800550000000003        0        
C3        C        0.5        0.092592        0.35800550000000003        0        
C4        C        0.53125        0.037037        0.35800550000000003        0        
C1        C        0.5        0.12963        0.35800550000000003        0        
C2        C        0.53125        0.185185        0.35800550000000003        0        
C3        C        0.5        0.203703        0.35800550000000003        0        
C4        C        0.53125        0.148148        0.35800550000000003        0        
C1        C        0.5        0.24074099999999998        0.35800550000000003        0        
C2        C        0.53125        0.296297        0.35800550000000003        0        
C3        C        0.5        0.314815        0.35800550000000003        0        
C4        C        0.53125        0.259259        0.35800550000000003        0        
C1        C        0.5        0.351852        0.35800550000000003        0        
C2        C        0.53125        0.407408        0.35800550000000003        0        
C3        C        0.5        0.42592500000000005        0.35800550000000003        0        
C4        C        0.53125        0.37037        0.35800550000000003        0        
C1        C        0.5        0.46296300000000007        0.35800550000000003        0        
C2        C        0.53125        0.518519        0.35800550000000003        0        
C3        C        0.5        0.537037        0.35800550000000003        0        
C4        C        0.53125        0.481481        0.35800550000000003        0        
C1        C        0.5        0.574075        0.35800550000000003        0        
C2        C        0.53125        0.62963        0.35800550000000003        0        
C3        C        0.5        0.648148        0.35800550000000003        0        
C4        C        0.53125        0.592592        0.35800550000000003        0        
C_FG        C        0.5625        0.018519        0.35800550000000003        0.08        
C2        C        0.59375        0.074075        0.35800550000000003        0        
C3        C        0.5625        0.092592        0.35800550000000003        0        
C4        C        0.59375        0.037037        0.35800550000000003        0        
C1        C        0.5625        0.12963        0.35800550000000003        0        
C2        C        0.59375        0.185185        0.35800550000000003        0        
C_FG        C        0.5625        0.203703        0.35800550000000003        0.08        
C4        C        0.59375        0.148148        0.35800550000000003        0        
C1        C        0.5625        0.24074099999999998        0.35800550000000003        0        
C2        C        0.59375        0.296297        0.35800550000000003        0        
C3        C        0.5625        0.314815        0.35800550000000003        0        
C4        C        0.59375        0.259259        0.35800550000000003        0        
C_FG        C        0.5625        0.351852        0.35800550000000003        0.08        
C2        C        0.59375        0.407408        0.35800550000000003        0        
C3        C        0.5625        0.42592500000000005        0.35800550000000003        0        
C4        C        0.59375        0.37037        0.35800550000000003        0        
C1        C        0.5625        0.46296300000000007        0.35800550000000003        0        
C2        C        0.59375        0.518519        0.35800550000000003        0        
C_FG        C        0.5625        0.537037        0.35800550000000003        0.08        
C4        C        0.59375        0.481481        0.35800550000000003        0        
C1        C        0.5625        0.574075        0.35800550000000003        0        
C2        C        0.59375        0.62963        0.35800550000000003        0        
C3        C        0.5625        0.648148        0.35800550000000003        0        
C4        C        0.59375        0.592592        0.35800550000000003        0        
C1        C        0.625        0.018519        0.35800550000000003        0        
C2        C        0.65625        0.074075        0.35800550000000003        0        
C3        C        0.625        0.092592        0.35800550000000003        0        
C4        C        0.65625        0.037037        0.35800550000000003        0        
C1        C        0.625        0.12963        0.35800550000000003        0        
C2        C        0.65625        0.185185        0.35800550000000003        0        
C3        C        0.625        0.203703        0.35800550000000003        0        
C4        C        0.65625        0.148148        0.35800550000000003        0        
C1        C        0.625        0.24074099999999998        0.35800550000000003        0        
C2        C        0.65625        0.296297        0.35800550000000003        0        
C3        C        0.625        0.314815        0.35800550000000003        0        
C4        C        0.65625        0.259259        0.35800550000000003        0        
C1        C        0.625        0.351852        0.35800550000000003        0        
C2        C        0.65625        0.407408        0.35800550000000003        0        
C3        C        0.625        0.42592500000000005        0.35800550000000003        0        
C4        C        0.65625        0.37037        0.35800550000000003        0        
C1        C        0.625        0.46296300000000007        0.35800550000000003        0        
C2        C        0.65625        0.518519        0.35800550000000003        0        
C3        C        0.625        0.537037        0.35800550000000003        0        
C4        C        0.65625        0.481481        0.35800550000000003        0        
C1        C        0.625        0.574075        0.35800550000000003        0        
C2        C        0.65625        0.62963        0.35800550000000003        0        
C3        C        0.625        0.648148        0.35800550000000003        0        
C4        C        0.65625        0.592592        0.35800550000000003        0        
C1        C        0.6875        0.018519        0.35800550000000003        0        
C2        C        0.71875        0.074075        0.35800550000000003        0        
C3        C        0.6875        0.092592        0.35800550000000003        0        
C4        C        0.71875        0.037037        0.35800550000000003        0        
C1        C        0.6875        0.12963        0.35800550000000003        0        
C2        C        0.71875        0.185185        0.35800550000000003        0        
C3        C        0.6875        0.203703        0.35800550000000003        0        
C4        C        0.71875        0.148148        0.35800550000000003        0        
C1        C        0.6875        0.24074099999999998        0.35800550000000003        0        
C2        C        0.71875        0.296297        0.35800550000000003        0        
C3        C        0.6875        0.314815        0.35800550000000003        0        
C4        C        0.71875        0.259259        0.35800550000000003        0        
C1        C        0.6875        0.351852        0.35800550000000003        0        
C2        C        0.71875        0.407408        0.35800550000000003        0        
C3        C        0.6875        0.42592500000000005        0.35800550000000003        0        
C4        C        0.71875        0.37037        0.35800550000000003        0        
C1        C        0.6875        0.46296300000000007        0.35800550000000003        0        
C2        C        0.71875        0.518519        0.35800550000000003        0        
C3        C        0.6875        0.537037        0.35800550000000003        0        
C4        C        0.71875        0.481481        0.35800550000000003        0        
C1        C        0.6875        0.574075        0.35800550000000003        0        
C2        C        0.71875        0.62963        0.35800550000000003        0        
C3        C        0.6875        0.648148        0.35800550000000003        0        
C4        C        0.71875        0.592592        0.35800550000000003        0        
C_FG        C        0.75        0.018519        0.35800550000000003        0.08        
C2        C        0.78125        0.074075        0.35800550000000003        0        
C3        C        0.75        0.092592        0.35800550000000003        0        
C4        C        0.78125        0.037037        0.35800550000000003        0        
C1        C        0.75        0.12963        0.35800550000000003        0        
C2        C        0.78125        0.185185        0.35800550000000003        0        
C_FG        C        0.75        0.203703        0.35800550000000003        0.08        
C4        C        0.78125        0.148148        0.35800550000000003        0        
C1        C        0.75        0.24074099999999998        0.35800550000000003        0        
C2        C        0.78125        0.296297        0.35800550000000003        0        
C3        C        0.75        0.314815        0.35800550000000003        0        
C4        C        0.78125        0.259259        0.35800550000000003        0        
C_FG        C        0.75        0.351852        0.35800550000000003        0.08        
C2        C        0.78125        0.407408        0.35800550000000003        0        
C3        C        0.75        0.42592500000000005        0.35800550000000003        0        
C4        C        0.78125        0.37037        0.35800550000000003        0        
C1        C        0.75        0.46296300000000007        0.35800550000000003        0        
C2        C        0.78125        0.518519        0.35800550000000003        0        
C_FG        C        0.75        0.537037        0.35800550000000003        0.08        
C4        C        0.78125        0.481481        0.35800550000000003        0        
C1        C        0.75        0.574075        0.35800550000000003        0        
C2        C        0.78125        0.62963        0.35800550000000003        0        
C3        C        0.75        0.648148        0.35800550000000003        0        
C4        C        0.78125        0.592592        0.35800550000000003        0        
C1        C        0.8125        0.018519        0.35800550000000003        0        
C2        C        0.84375        0.074075        0.35800550000000003        0        
C3        C        0.8125        0.092592        0.35800550000000003        0        
C4        C        0.84375        0.037037        0.35800550000000003        0        
C1        C        0.8125        0.12963        0.35800550000000003        0        
C2        C        0.84375        0.185185        0.35800550000000003        0        
C3        C        0.8125        0.203703        0.35800550000000003        0        
C4        C        0.84375        0.148148        0.35800550000000003        0        
C1        C        0.8125        0.24074099999999998        0.35800550000000003        0        
C2        C        0.84375        0.296297        0.35800550000000003        0        
C3        C        0.8125        0.314815        0.35800550000000003        0        
C4        C        0.84375        0.259259        0.35800550000000003        0        
C1        C        0.8125        0.351852        0.35800550000000003        0        
C2        C        0.84375        0.407408        0.35800550000000003        0        
C3        C        0.8125        0.42592500000000005        0.35800550000000003        0        
C4        C        0.84375        0.37037        0.35800550000000003        0        
C1        C        0.8125        0.46296300000000007        0.35800550000000003        0        
C2        C        0.84375        0.518519        0.35800550000000003        0        
C3        C        0.8125        0.537037        0.35800550000000003        0        
C4        C        0.84375        0.481481        0.35800550000000003        0        
C1        C        0.8125        0.574075        0.35800550000000003        0        
C2        C        0.84375        0.62963        0.35800550000000003        0        
C3        C        0.8125        0.648148        0.35800550000000003        0        
C4        C        0.84375        0.592592        0.35800550000000003        0        
C1        C        0.875        0.018519        0.35800550000000003        0        
C2        C        0.9062500000000001        0.074075        0.35800550000000003        0        
C3        C        0.875        0.092592        0.35800550000000003        0        
C4        C        0.9062500000000001        0.037037        0.35800550000000003        0        
C1        C        0.875        0.12963        0.35800550000000003        0        
C2        C        0.9062500000000001        0.185185        0.35800550000000003        0        
C3        C        0.875        0.203703        0.35800550000000003        0        
C4        C        0.9062500000000001        0.148148        0.35800550000000003        0        
C1        C        0.875        0.24074099999999998        0.35800550000000003        0        
C2        C        0.9062500000000001        0.296297        0.35800550000000003        0        
C3        C        0.875        0.314815        0.35800550000000003        0        
C4        C        0.9062500000000001        0.259259        0.35800550000000003        0        
C1        C        0.875        0.351852        0.35800550000000003        0        
C2        C        0.9062500000000001        0.407408        0.35800550000000003        0        
C3        C        0.875        0.42592500000000005        0.35800550000000003        0        
C4        C        0.9062500000000001        0.37037        0.35800550000000003        0        
C1        C        0.875        0.46296300000000007        0.35800550000000003        0        
C2        C        0.9062500000000001        0.518519        0.35800550000000003        0        
C3        C        0.875        0.537037        0.35800550000000003        0        
C4        C        0.9062500000000001        0.481481        0.35800550000000003        0        
C1        C        0.875        0.574075        0.35800550000000003        0        
C2        C        0.9062500000000001        0.62963        0.35800550000000003        0        
C3        C        0.875        0.648148        0.35800550000000003        0        
C4        C        0.9062500000000001        0.592592        0.35800550000000003        0        
C_FG        C        0.9375        0.018519        0.35800550000000003        0.08        
C2        C        0.9687500000000001        0.074075        0.35800550000000003        0        
C3        C        0.9375        0.092592        0.35800550000000003        0        
C4        C        0.9687500000000001        0.037037        0.35800550000000003        0        
C1        C        0.9375        0.12963        0.35800550000000003        0        
C2        C        0.9687500000000001        0.185185        0.35800550000000003        0        
C_FG        C        0.9375        0.203703        0.35800550000000003        0.08        
C4        C        0.9687500000000001        0.148148        0.35800550000000003        0        
C1        C        0.9375        0.24074099999999998        0.35800550000000003        0        
C2        C        0.9687500000000001        0.296297        0.35800550000000003        0        
C3        C        0.9375        0.314815        0.35800550000000003        0        
C4        C        0.9687500000000001        0.259259        0.35800550000000003        0        
C_FG        C        0.9375        0.351852        0.35800550000000003        0.08        
C2        C        0.9687500000000001        0.407408        0.35800550000000003        0        
C3        C        0.9375        0.42592500000000005        0.35800550000000003        0        
C4        C        0.9687500000000001        0.37037        0.35800550000000003        0        
C1        C        0.9375        0.46296300000000007        0.35800550000000003        0        
C2        C        0.9687500000000001        0.518519        0.35800550000000003        0        
C_FG        C        0.9375        0.537037        0.35800550000000003        0.08        
C4        C        0.9687500000000001        0.481481        0.35800550000000003        0        
C1        C        0.9375        0.574075        0.35800550000000003        0        
C2        C        0.9687500000000001        0.62963        0.35800550000000003        0        
C3        C        0.9375        0.648148        0.35800550000000003        0        
C4        C        0.9687500000000001        0.592592        0.35800550000000003        0        
C_FG        C        0.0        0.685186        0.35800550000000003        0.08        
C1        C        0.0625        0.685186        0.35800550000000003        0        
C1        C        0.125        0.685186        0.35800550000000003        0        
C_FG        C        0.1875        0.685186        0.35800550000000003        0.08        
C1        C        0.25        0.685186        0.35800550000000003        0        
C1        C        0.3125        0.685186        0.35800550000000003        0        
C_FG        C        0.375        0.685186        0.35800550000000003        0.08        
C1        C        0.4375        0.685186        0.35800550000000003        0        
C1        C        0.5        0.685186        0.35800550000000003        0        
C_FG        C        0.5625        0.685186        0.35800550000000003        0.08        
C1        C        0.625        0.685186        0.35800550000000003        0        
C1        C        0.6875        0.685186        0.35800550000000003        0        
C_FG        C        0.75        0.685186        0.35800550000000003        0.08        
C1        C        0.8125        0.685186        0.35800550000000003        0        
C1        C        0.875        0.685186        0.35800550000000003        0        
C_FG        C        0.9375        0.685186        0.35800550000000003        0.08        
C2        C        0.03125        0.740741        0.35800550000000003        0        
C2        C        0.09375        0.740741        0.35800550000000003        0        
C2        C        0.15625        0.740741        0.35800550000000003        0        
C2        C        0.21875        0.740741        0.35800550000000003        0        
C2        C        0.28125        0.740741        0.35800550000000003        0        
C2        C        0.34375        0.740741        0.35800550000000003        0        
C2        C        0.40625        0.740741        0.35800550000000003        0        
C2        C        0.46875        0.740741        0.35800550000000003        0        
C2        C        0.53125        0.740741        0.35800550000000003        0        
C2        C        0.59375        0.740741        0.35800550000000003        0        
C2        C        0.65625        0.740741        0.35800550000000003        0        
C2        C        0.71875        0.740741        0.35800550000000003        0        
C2        C        0.78125        0.740741        0.35800550000000003        0        
C2        C        0.84375        0.740741        0.35800550000000003        0        
C2        C        0.9062500000000001        0.740741        0.35800550000000003        0        
C2        C        0.9687500000000001        0.740741        0.35800550000000003        0        
C3        C        0.0        0.759259        0.35800550000000003        0        
C3        C        0.0625        0.759259        0.35800550000000003        0        
C3        C        0.125        0.759259        0.35800550000000003        0        
C3        C        0.1875        0.759259        0.35800550000000003        0        
C3        C        0.25        0.759259        0.35800550000000003        0        
C3        C        0.3125        0.759259        0.35800550000000003        0        
C3        C        0.375        0.759259        0.35800550000000003        0        
C3        C        0.4375        0.759259        0.35800550000000003        0        
C3        C        0.5        0.759259        0.35800550000000003        0        
C3        C        0.5625        0.759259        0.35800550000000003        0        
C3        C        0.625        0.759259        0.35800550000000003        0        
C3        C        0.6875        0.759259        0.35800550000000003        0        
C3        C        0.75        0.759259        0.35800550000000003        0        
C3        C        0.8125        0.759259        0.35800550000000003        0        
C3        C        0.875        0.759259        0.35800550000000003        0        
C3        C        0.9375        0.759259        0.35800550000000003        0        
C4        C        0.03125        0.703703        0.35800550000000003        0        
C4        C        0.09375        0.703703        0.35800550000000003        0        
C4        C        0.15625        0.703703        0.35800550000000003        0        
C4        C        0.21875        0.703703        0.35800550000000003        0        
C4        C        0.28125        0.703703        0.35800550000000003        0        
C4        C        0.34375        0.703703        0.35800550000000003        0        
C4        C        0.40625        0.703703        0.35800550000000003        0        
C4        C        0.46875        0.703703        0.35800550000000003        0        
C4        C        0.53125        0.703703        0.35800550000000003        0        
C4        C        0.59375        0.703703        0.35800550000000003        0        
C4        C        0.65625        0.703703        0.35800550000000003        0        
C4        C        0.71875        0.703703        0.35800550000000003        0        
C4        C        0.78125        0.703703        0.35800550000000003        0        
C4        C        0.84375        0.703703        0.35800550000000003        0        
C4        C        0.9062500000000001        0.703703        0.35800550000000003        0        
C4        C        0.9687500000000001        0.703703        0.35800550000000003        0        
C1        C        0.0        0.796297        0.35800550000000003        0        
C1        C        0.0625        0.796297        0.35800550000000003        0        
C1        C        0.125        0.796297        0.35800550000000003        0        
C1        C        0.1875        0.796297        0.35800550000000003        0        
C1        C        0.25        0.796297        0.35800550000000003        0        
C1        C        0.3125        0.796297        0.35800550000000003        0        
C1        C        0.375        0.796297        0.35800550000000003        0        
C1        C        0.4375        0.796297        0.35800550000000003        0        
C1        C        0.5        0.796297        0.35800550000000003        0        
C1        C        0.5625        0.796297        0.35800550000000003        0        
C1        C        0.625        0.796297        0.35800550000000003        0        
C1        C        0.6875        0.796297        0.35800550000000003        0        
C1        C        0.75        0.796297        0.35800550000000003        0        
C1        C        0.8125        0.796297        0.35800550000000003        0        
C1        C        0.875        0.796297        0.35800550000000003        0        
C1        C        0.9375        0.796297        0.35800550000000003        0        
C2        C        0.03125        0.851852        0.35800550000000003        0        
C2        C        0.09375        0.851852        0.35800550000000003        0        
C2        C        0.15625        0.851852        0.35800550000000003        0        
C2        C        0.21875        0.851852        0.35800550000000003        0        
C2        C        0.28125        0.851852        0.35800550000000003        0        
C2        C        0.34375        0.851852        0.35800550000000003        0        
C2        C        0.40625        0.851852        0.35800550000000003        0        
C2        C        0.46875        0.851852        0.35800550000000003        0        
C2        C        0.53125        0.851852        0.35800550000000003        0        
C2        C        0.59375        0.851852        0.35800550000000003        0        
C2        C        0.65625        0.851852        0.35800550000000003        0        
C2        C        0.71875        0.851852        0.35800550000000003        0        
C2        C        0.78125        0.851852        0.35800550000000003        0        
C2        C        0.84375        0.851852        0.35800550000000003        0        
C2        C        0.9062500000000001        0.851852        0.35800550000000003        0        
C2        C        0.9687500000000001        0.851852        0.35800550000000003        0        
C_FG        C        0.0        0.87037        0.35800550000000003        0.08        
C3        C        0.0625        0.87037        0.35800550000000003        0        
C3        C        0.125        0.87037        0.35800550000000003        0        
C_FG        C        0.1875        0.87037        0.35800550000000003        0.08        
C3        C        0.25        0.87037        0.35800550000000003        0        
C3        C        0.3125        0.87037        0.35800550000000003        0        
C_FG        C        0.375        0.87037        0.35800550000000003        0.08        
C3        C        0.4375        0.87037        0.35800550000000003        0        
C3        C        0.5        0.87037        0.35800550000000003        0        
C_FG        C        0.5625        0.87037        0.35800550000000003        0.08        
C3        C        0.625        0.87037        0.35800550000000003        0        
C3        C        0.6875        0.87037        0.35800550000000003        0        
C_FG        C        0.75        0.87037        0.35800550000000003        0.08        
C3        C        0.8125        0.87037        0.35800550000000003        0        
C3        C        0.875        0.87037        0.35800550000000003        0        
C_FG        C        0.9375        0.87037        0.35800550000000003        0.08        
C4        C        0.03125        0.814814        0.35800550000000003        0        
C4        C        0.09375        0.814814        0.35800550000000003        0        
C4        C        0.15625        0.814814        0.35800550000000003        0        
C4        C        0.21875        0.814814        0.35800550000000003        0        
C4        C        0.28125        0.814814        0.35800550000000003        0        
C4        C        0.34375        0.814814        0.35800550000000003        0        
C4        C        0.40625        0.814814        0.35800550000000003        0        
C4        C        0.46875        0.814814        0.35800550000000003        0        
C4        C        0.53125        0.814814        0.35800550000000003        0        
C4        C        0.59375        0.814814        0.35800550000000003        0        
C4        C        0.65625        0.814814        0.35800550000000003        0        
C4        C        0.71875        0.814814        0.35800550000000003        0        
C4        C        0.78125        0.814814        0.35800550000000003        0        
C4        C        0.84375        0.814814        0.35800550000000003        0        
C4        C        0.9062500000000001        0.814814        0.35800550000000003        0        
C4        C        0.9687500000000001        0.814814        0.35800550000000003        0        
C1        C        0.0        0.907408        0.35800550000000003        0        
C1        C        0.0625        0.907408        0.35800550000000003        0        
C1        C        0.125        0.907408        0.35800550000000003        0        
C1        C        0.1875        0.907408        0.35800550000000003        0        
C1        C        0.25        0.907408        0.35800550000000003        0        
C1        C        0.3125        0.907408        0.35800550000000003        0        
C1        C        0.375        0.907408        0.35800550000000003        0        
C1        C        0.4375        0.907408        0.35800550000000003        0        
C1        C        0.5        0.907408        0.35800550000000003        0        
C1        C        0.5625        0.907408        0.35800550000000003        0        
C1        C        0.625        0.907408        0.35800550000000003        0        
C1        C        0.6875        0.907408        0.35800550000000003        0        
C1        C        0.75        0.907408        0.35800550000000003        0        
C1        C        0.8125        0.907408        0.35800550000000003        0        
C1        C        0.875        0.907408        0.35800550000000003        0        
C1        C        0.9375        0.907408        0.35800550000000003        0        
C2        C        0.03125        0.962963        0.35800550000000003        0        
C2        C        0.09375        0.962963        0.35800550000000003        0        
C2        C        0.15625        0.962963        0.35800550000000003        0        
C2        C        0.21875        0.962963        0.35800550000000003        0        
C2        C        0.28125        0.962963        0.35800550000000003        0        
C2        C        0.34375        0.962963        0.35800550000000003        0        
C2        C        0.40625        0.962963        0.35800550000000003        0        
C2        C        0.46875        0.962963        0.35800550000000003        0        
C2        C        0.53125        0.962963        0.35800550000000003        0        
C2        C        0.59375        0.962963        0.35800550000000003        0        
C2        C        0.65625        0.962963        0.35800550000000003        0        
C2        C        0.71875        0.962963        0.35800550000000003        0        
C2        C        0.78125        0.962963        0.35800550000000003        0        
C2        C        0.84375        0.962963        0.35800550000000003        0        
C2        C        0.9062500000000001        0.962963        0.35800550000000003        0        
C2        C        0.9687500000000001        0.962963        0.35800550000000003        0        
C3        C        0.0        0.9814809999999999        0.35800550000000003        0        
C3        C        0.0625        0.9814809999999999        0.35800550000000003        0        
C3        C        0.125        0.9814809999999999        0.35800550000000003        0        
C3        C        0.1875        0.9814809999999999        0.35800550000000003        0        
C3        C        0.25        0.9814809999999999        0.35800550000000003        0        
C3        C        0.3125        0.9814809999999999        0.35800550000000003        0        
C3        C        0.375        0.9814809999999999        0.35800550000000003        0        
C3        C        0.4375        0.9814809999999999        0.35800550000000003        0        
C3        C        0.5        0.9814809999999999        0.35800550000000003        0        
C3        C        0.5625        0.9814809999999999        0.35800550000000003        0        
C3        C        0.625        0.9814809999999999        0.35800550000000003        0        
C3        C        0.6875        0.9814809999999999        0.35800550000000003        0        
C3        C        0.75        0.9814809999999999        0.35800550000000003        0        
C3        C        0.8125        0.9814809999999999        0.35800550000000003        0        
C3        C        0.875        0.9814809999999999        0.35800550000000003        0        
C3        C        0.9375        0.9814809999999999        0.35800550000000003        0        
C4        C        0.03125        0.925925        0.35800550000000003        0        
C4        C        0.09375        0.925925        0.35800550000000003        0        
C4        C        0.15625        0.925925        0.35800550000000003        0        
C4        C        0.21875        0.925925        0.35800550000000003        0        
C4        C        0.28125        0.925925        0.35800550000000003        0        
C4        C        0.34375        0.925925        0.35800550000000003        0        
C4        C        0.40625        0.925925        0.35800550000000003        0        
C4        C        0.46875        0.925925        0.35800550000000003        0        
C4        C        0.53125        0.925925        0.35800550000000003        0        
C4        C        0.59375        0.925925        0.35800550000000003        0        
C4        C        0.65625        0.925925        0.35800550000000003        0        
C4        C        0.71875        0.925925        0.35800550000000003        0        
C4        C        0.78125        0.925925        0.35800550000000003        0        
C4        C        0.84375        0.925925        0.35800550000000003        0        
C4        C        0.9062500000000001        0.925925        0.35800550000000003        0        
C4        C        0.9687500000000001        0.925925        0.35800550000000003        0        
C_COOH        C        0.0        0.018519        0.03181503968253968        0.55        
C_COOH        C        0.0        0.203703        0.03181503968253968        0.55        
C_COOH        C        0.0        0.351852        0.03181503968253968        0.55        
C_COOH        C        0.0        0.537037        0.03181503968253968        0.55        
C_COOH        C        0.1875        0.018519        0.03181503968253968        0.55        
C_COOH        C        0.1875        0.203703        0.03181503968253968        0.55        
C_COOH        C        0.1875        0.351852        0.03181503968253968        0.55        
C_COOH        C        0.1875        0.537037        0.03181503968253968        0.55        
C_COOH        C        0.375        0.018519        0.03181503968253968        0.55        
C_COOH        C        0.375        0.203703        0.03181503968253968        0.55        
C_COOH        C        0.375        0.351852        0.03181503968253968        0.55        
C_COOH        C        0.375        0.537037        0.03181503968253968        0.55        
C_COOH        C        0.5625        0.018519        0.03181503968253968        0.55        
C_COOH        C        0.5625        0.203703        0.03181503968253968        0.55        
C_COOH        C        0.5625        0.351852        0.03181503968253968        0.55        
C_COOH        C        0.5625        0.537037        0.03181503968253968        0.55        
C_COOH        C        0.75        0.018519        0.03181503968253968        0.55        
C_COOH        C        0.75        0.203703        0.03181503968253968        0.55        
C_COOH        C        0.75        0.351852        0.03181503968253968        0.55        
C_COOH        C        0.75        0.537037        0.03181503968253968        0.55        
C_COOH        C        0.9375        0.018519        0.03181503968253968        0.55        
C_COOH        C        0.9375        0.203703        0.03181503968253968        0.55        
C_COOH        C        0.9375        0.351852        0.03181503968253968        0.55        
C_COOH        C        0.9375        0.537037        0.03181503968253968        0.55        
C_COOH        C        0.0        0.685186        0.03181503968253968        0.55        
C_COOH        C        0.1875        0.685186        0.03181503968253968        0.55        
C_COOH        C        0.375        0.685186        0.03181503968253968        0.55        
C_COOH        C        0.5625        0.685186        0.03181503968253968        0.55        
C_COOH        C        0.75        0.685186        0.03181503968253968        0.55        
C_COOH        C        0.9375        0.685186        0.03181503968253968        0.55        
C_COOH        C        0.0        0.87037        0.03181503968253968        0.55        
C_COOH        C        0.1875        0.87037        0.03181503968253968        0.55        
C_COOH        C        0.375        0.87037        0.03181503968253968        0.55        
C_COOH        C        0.5625        0.87037        0.03181503968253968        0.55        
C_COOH        C        0.75        0.87037        0.03181503968253968        0.55        
C_COOH        C        0.9375        0.87037        0.03181503968253968        0.55        
C_COOH        C        0.0        0.018519        0.4183229761904762        0.55        
C_COOH        C        0.0        0.203703        0.4183229761904762        0.55        
C_COOH        C        0.0        0.351852        0.4183229761904762        0.55        
C_COOH        C        0.0        0.537037        0.4183229761904762        0.55        
C_COOH        C        0.1875        0.018519        0.4183229761904762        0.55        
C_COOH        C        0.1875        0.203703        0.4183229761904762        0.55        
C_COOH        C        0.1875        0.351852        0.4183229761904762        0.55        
C_COOH        C        0.1875        0.537037        0.4183229761904762        0.55        
C_COOH        C        0.375        0.018519        0.4183229761904762        0.55        
C_COOH        C        0.375        0.203703        0.4183229761904762        0.55        
C_COOH        C        0.375        0.351852        0.4183229761904762        0.55        
C_COOH        C        0.375        0.537037        0.4183229761904762        0.55        
C_COOH        C        0.5625        0.018519        0.4183229761904762        0.55        
C_COOH        C        0.5625        0.203703        0.4183229761904762        0.55        
C_COOH        C        0.5625        0.351852        0.4183229761904762        0.55        
C_COOH        C        0.5625        0.537037        0.4183229761904762        0.55        
C_COOH        C        0.75        0.018519        0.4183229761904762        0.55        
C_COOH        C        0.75        0.203703        0.4183229761904762        0.55        
C_COOH        C        0.75        0.351852        0.4183229761904762        0.55        
C_COOH        C        0.75        0.537037        0.4183229761904762        0.55        
C_COOH        C        0.9375        0.018519        0.4183229761904762        0.55        
C_COOH        C        0.9375        0.203703        0.4183229761904762        0.55        
C_COOH        C        0.9375        0.351852        0.4183229761904762        0.55        
C_COOH        C        0.9375        0.537037        0.4183229761904762        0.55        
C_COOH        C        0.0        0.685186        0.4183229761904762        0.55        
C_COOH        C        0.1875        0.685186        0.4183229761904762        0.55        
C_COOH        C        0.375        0.685186        0.4183229761904762        0.55        
C_COOH        C        0.5625        0.685186        0.4183229761904762        0.55        
C_COOH        C        0.75        0.685186        0.4183229761904762        0.55        
C_COOH        C        0.9375        0.685186        0.4183229761904762        0.55        
C_COOH        C        0.0        0.87037        0.4183229761904762        0.55        
C_COOH        C        0.1875        0.87037        0.4183229761904762        0.55        
C_COOH        C        0.375        0.87037        0.4183229761904762        0.55        
C_COOH        C        0.5625        0.87037        0.4183229761904762        0.55        
C_COOH        C        0.75        0.87037        0.4183229761904762        0.55        
C_COOH        C        0.9375        0.87037        0.4183229761904762        0.55        
O1_COOH        O        0.006551745655336177        0.04730458228536245        0.014550793650793648        -0.5        
O1_COOH        O        -0.024116946940405695        0.2198542659293385        0.014550793650793648        -0.5        
O1_COOH        O        -0.017625567266485433        0.3752280412899673        0.014550793650793648        -0.5        
O1_COOH        O        -0.005067435017831696        0.5661365890067804        0.014550793650793648        -0.5        
O1_COOH        O        0.19996184164435343        0.04516818339396812        0.014550793650793648        -0.5        
O1_COOH        O        0.15996152791900925        0.21233977952954275        0.014550793650793648        -0.5        
O1_COOH        O        0.16368063438170996        0.3684621610551303        0.014550793650793648        -0.5        
O1_COOH        O        0.18606097722962095        0.5665610079322507        0.014550793650793648        -0.5        
O1_COOH        O        0.34741756767359316        0.027006649083764434        0.014550793650793648        -0.5        
O1_COOH        O        0.3704407042718688        0.23289103765328129        0.014550793650793648        -0.5        
O1_COOH        O        0.3520996841652718        0.36977266375616574        0.014550793650793648        -0.5        
O1_COOH        O        0.3476949203635344        0.5464223161242422        0.014550793650793648        -0.5        
O1_COOH        O        0.5337907133086479        0.02079662874958447        0.014550793650793648        -0.5        
O1_COOH        O        0.5640366301213653        0.23322182347160103        0.014550793650793648        -0.5        
O1_COOH        O        0.541597000795297        0.37218316655007155        0.014550793650793648        -0.5        
O1_COOH        O        0.5907523578312021        0.5427482436588543        0.014550793650793648        -0.5        
O1_COOH        O        0.7403682682151106        0.04637716628682768        0.014550793650793648        -0.5        
O1_COOH        O        0.7305121195992449        0.22546525968487177        0.014550793650793648        -0.5        
O1_COOH        O        0.7671879922448144        0.3755689597735914        0.014550793650793648        -0.5        
O1_COOH        O        0.777416781924312        0.5460725983484545        0.014550793650793648        -0.5        
O1_COOH        O        0.9135615533893776        0.034947748589933166        0.014550793650793648        -0.5        
O1_COOH        O        0.9177922152889932        0.2252555389150116        0.014550793650793648        -0.5        
O1_COOH        O        0.955341051073575        0.3750551198989488        0.014550793650793648        -0.5        
O1_COOH        O        0.9220279308466447        0.5619680629208686        0.014550793650793648        -0.5        
O1_COOH        O        0.020831901512575007        0.7055939291130066        0.014550793650793648        -0.5        
O1_COOH        O        0.15878715244085784        0.6874158196707268        0.014550793650793648        -0.5        
O1_COOH        O        0.37059876989453994        0.7143995971254626        0.014550793650793648        -0.5        
O1_COOH        O        0.5384926586609537        0.7015084530170701        0.014550793650793648        -0.5        
O1_COOH        O        0.7502959057246857        0.71474538426592        0.014550793650793648        -0.5        
O1_COOH        O        0.9662851892508234        0.6859530247613732        0.014550793650793648        -0.5        
O1_COOH        O        -0.024324718769078275        0.8861894792592062        0.014550793650793648        -0.5        
O1_COOH        O        0.1698233457729221        0.8937053505811808        0.014550793650793648        -0.5        
O1_COOH        O        0.3504470483797163        0.8858134120424735        0.014550793650793648        -0.5        
O1_COOH        O        0.5855666408489845        0.8880644206758752        0.014550793650793648        -0.5        
O1_COOH        O        0.7591040282293396        0.8984145613044173        0.014550793650793648        -0.5        
O1_COOH        O        0.9416546134649502        0.8996216330092566        0.014550793650793648        -0.5        
O1_COOH        O        0.027710540399675097        0.026554844614777307        0.4355872222222222        -0.5        
O1_COOH        O        0.018474517209210655        0.226377650423827        0.4355872222222222        -0.5        
O1_COOH        O        0.011077723342465005        0.3791378421519943        0.4355872222222222        -0.5        
O1_COOH        O        0.026769516402060857        0.5479276358349603        0.4355872222222222        -0.5        
O1_COOH        O        0.15870516821066924        0.018575341384042553        0.4355872222222222        -0.5        
O1_COOH        O        0.20489127656897496        0.22726325805946088        0.4355872222222222        -0.5        
O1_COOH        O        0.1746840697689034        0.37832360416094635        0.4355872222222222        -0.5        
O1_COOH        O        0.17502676760028335        0.5636805664379986        0.4355872222222222        -0.5        
O1_COOH        O        0.40062007926593296        0.0320123774015204        0.4355872222222222        -0.5        
O1_COOH        O        0.35875833169559596        0.22811273401080537        0.4355872222222222        -0.5        
O1_COOH        O        0.3495503092817414        0.3656810309841429        0.4355872222222222        -0.5        
O1_COOH        O        0.3798795598924823        0.566170410904967        0.4355872222222222        -0.5        
O1_COOH        O        0.5390243912139597        0.035637177011786265        0.4355872222222222        -0.5        
O1_COOH        O        0.5345090233557591        0.2106392719661037        0.4355872222222222        -0.5        
O1_COOH        O        0.5829193139123424        0.37269476722272427        0.4355872222222222        -0.5        
O1_COOH        O        0.5638959535791183        0.5665631871507788        0.4355872222222222        -0.5        
O1_COOH        O        0.7778976112350593        0.025840971468541744        0.4355872222222222        -0.5        
O1_COOH        O        0.7257424720398856        0.21963084358149618        0.4355872222222222        -0.5        
O1_COOH        O        0.7685932377866616        0.37442414651991873        0.4355872222222222        -0.5        
O1_COOH        O        0.7267211302044272        0.554436033157822        0.4355872222222222        -0.5        
O1_COOH        O        0.9107241958333725        0.029393332903237625        0.4355872222222222        -0.5        
O1_COOH        O        0.9227589172587777        0.22909658298049276        0.4355872222222222        -0.5        
O1_COOH        O        0.9524055802695185        0.37714417895949337        0.4355872222222222        -0.5        
O1_COOH        O        0.9649210171852035        0.546059043173746        0.4355872222222222        -0.5        
O1_COOH        O        0.028311226496839818        0.690581271166583        0.4355872222222222        -0.5        
O1_COOH        O        0.16995515286373658        0.7086259516204232        0.4355872222222222        -0.5        
O1_COOH        O        0.34840374562308063        0.6965151981645118        0.4355872222222222        -0.5        
O1_COOH        O        0.5339459576636539        0.6890013248168356        0.4355872222222222        -0.5        
O1_COOH        O        0.7777314597505021        0.6931454255929415        0.4355872222222222        -0.5        
O1_COOH        O        0.9624202290583068        0.6999964327975146        0.4355872222222222        -0.5        
O1_COOH        O        0.017014484521937635        0.8942184492794161        0.4355872222222222        -0.5        
O1_COOH        O        0.17796368836749235        0.8982627420603561        0.4355872222222222        -0.5        
O1_COOH        O        0.4007346376365659        0.8836316336704064        0.4355872222222222        -0.5        
O1_COOH        O        0.541360460022582        0.8904417557020312        0.4355872222222222        -0.5        
O1_COOH        O        0.7212837248937239        0.8725528059637452        0.4355872222222222        -0.5        
O1_COOH        O        0.9605858254103822        0.8880380324394832        0.4355872222222222        -0.5        
O2_COOH        O        -0.00637908838980643        -0.009507999735683594        0.0        -0.58        
O2_COOH        O        0.023481396305398205        0.18797736619329009        0.0        -0.58        
O2_COOH        O        0.017161083080478694        0.3290919843588228        0.0        -0.58        
O2_COOH        O        0.0049338935894162154        0.5087042685194817        0.0        -0.58        
O2_COOH        O        0.17536656357998956        -0.007427901074803941        0.0        -0.58        
O2_COOH        O        0.21431275445755116        0.19529382435116338        0.0        -0.58        
O2_COOH        O        0.21069165710354365        0.3356795642685705        0.0        -0.58        
O2_COOH        O        0.1889011003982909        0.5082910342484479        0.0        -0.58        
O2_COOH        O        0.40185555622457614        0.010255024782510471        0.0        -0.58        
O2_COOH        O        0.37943914522556715        0.1752841507481778        0.0        -0.58        
O2_COOH        O        0.39729682691440177        0.33440359706764955        0.0        -0.58        
O2_COOH        O        0.4015855125724932        0.5278990138399213        0.0        -0.58        
O2_COOH        O        0.5904527147491246        0.016301393292247224        0.0        -0.58        
O2_COOH        O        0.5610038644840182        0.17496208208370864        0.0        -0.58        
O2_COOH        O        0.5828521452989024        0.33205661792726177        0.0        -0.58        
O2_COOH        O        0.5349921727266853        0.5314762639714454        0.0        -0.58        
O2_COOH        O        0.7593779080622086        -0.00860502380529847        0.0        -0.58        
O2_COOH        O        0.768974318929054        0.18251423819593773        0.0        -0.58        
O2_COOH        O        0.7332649605859353        0.32876005005380504        0.0        -0.58        
O2_COOH        O        0.7233057288149171        0.5282395155505486        0.0        -0.58        
O2_COOH        O        0.9608075999706197        0.002523195995652708        0.0        -0.58        
O2_COOH        O        0.9566884281308135        0.18271843222276576        0.0        -0.58        
O2_COOH        O        0.9201291117280032        0.3292603487758537        0.0        -0.58        
O2_COOH        O        0.9525643358113367        0.5127629420022636        0.0        -0.58        
O2_COOH        O        -0.020282921234621637        0.6653158782777469        0.0        -0.58        
O2_COOH        O        0.21545618177784825        0.6830149424649276        0.0        -0.58        
O2_COOH        O        0.37928524508483324        0.6567422648413037        0.0        -0.58        
O2_COOH        O        0.5858746791256004        0.6692936903756865        0.0        -0.58        
O2_COOH        O        0.7497118922387833        0.6564055901825065        0.0        -0.58        
O2_COOH        O        0.9094733829412694        0.6844391885382356        0.0        -0.58        
O2_COOH        O        0.023683692751221713        0.8549674093342597        0.0        -0.58        
O2_COOH        O        0.20471082375332067        0.8476496027508739        0.0        -0.58        
O2_COOH        O        0.3989059110130236        0.8553335661025847        0.0        -0.58        
O2_COOH        O        0.5400412312119065        0.8531418779946999        0.0        -0.58        
O2_COOH        O        0.7411358889930426        0.8430644932197549        0.0        -0.58        
O2_COOH        O        0.9334548725007645        0.8418892313120018        0.0        -0.58        
O2_COOH        O        -0.02698028828314753        0.01069492290954339        0.45013801587301594        -0.58        
O2_COOH        O        -0.017987660760391305        0.1816258915665023        0.45013801587301594        -0.58        
O2_COOH        O        -0.010785793600191315        0.3252852179491564        0.45013801587301594        -0.58        
O2_COOH        O        -0.026064062963438873        0.5264333636155774        0.45013801587301594        -0.58        
O2_COOH        O        0.2155360054887271        0.01846414337281718        0.45013801587301594        -0.58        
O2_COOH        O        0.17056703338602539        0.18076362222889533        0.45013801587301594        -0.58        
O2_COOH        O        0.19997819375820422        0.326077998436751        0.45013801587301594        -0.58        
O2_COOH        O        0.199644526996341        0.5110955678582859        0.45013801587301594        -0.58        
O2_COOH        O        0.350055083211583        0.005381211744863802        0.45013801587301594        -0.58        
O2_COOH        O        0.39081365382023436        0.17993653240219729        0.45013801587301594        -0.58        
O2_COOH        O        0.39977901846705277        0.3383874035956249        0.45013801587301594        -0.58        
O2_COOH        O        0.3702490304882109        0.5086713379251954        0.45013801587301594        -0.58        
O2_COOH        O        0.585356959248517        0.0018519359875869678        0.45013801587301594        -0.58        
O2_COOH        O        0.5897533342293579        0.1969495186691925        0.45013801587301594        -0.58        
O2_COOH        O        0.5426187935004855        0.33155849939781645        0.45013801587301594        -0.58        
O2_COOH        O        0.5611408337964082        0.5082889124585703        0.45013801587301594        -0.58        
O2_COOH        O        0.722837570733846        0.01138998345348207        0.45013801587301594        -0.58        
O2_COOH        O        0.7736182726125425        0.18819490072227218        0.45013801587301594        -0.58        
O2_COOH        O        0.7318967472894494        0.3298746941989196        0.45013801587301594        -0.58        
O2_COOH        O        0.7726654048940083        0.5200964812055131        0.45013801587301594        -0.58        
O2_COOH        O        0.9635701850273979        0.007931236918349393        0.45013801587301594        -0.58        
O2_COOH        O        0.951852612985078        0.17897861067110196        0.45013801587301594        -0.58        
O2_COOH        O        0.9229872244677003        0.32722634240567566        0.45013801587301594        -0.58        
O2_COOH        O        0.9108016051652819        0.5282527135075746        0.45013801587301594        -0.58        
O2_COOH        O        -0.027565144580983317        0.6799329096834407        0.45013801587301594        -0.58        
O2_COOH        O        0.2045824901569113        0.6623637582486458        0.45013801587301594        -0.58        
O2_COOH        O        0.4008953668889699        0.6741553586596738        0.45013801587301594        -0.58        
O2_COOH        O        0.5903015615275714        0.6814712199211069        0.45013801587301594        -0.58        
O2_COOH        O        0.7229993436508434        0.6774363280712511        0.45013801587301594        -0.58        
O2_COOH        O        0.9132364903615134        0.6707658645312665        0.45013801587301594        -0.58        
O2_COOH        O        -0.01656610411669963        0.8471500256731113        0.45013801587301594        -0.58        
O2_COOH        O        0.1967850025041737        0.8432123115918482        0.45013801587301594        -0.58        
O2_COOH        O        0.34994354378216935        0.8574578483648317        0.45013801587301594        -0.58        
O2_COOH        O        0.583082452544684        0.8508271925563725        0.45013801587301594        -0.58        
O2_COOH        O        0.777959518999297        0.868244717226059        0.45013801587301594        -0.58        
O2_COOH        O        0.9150225522186559        0.8531675708254737        0.45013801587301594        -0.58        
H_COOH        H        -0.010857324171611563        -0.029183462027998673        0.023165079365079368        0.45        
H_COOH        H        0.03996576252136343        0.17693768595977794        0.023165079365079368        0.45        
H_COOH        H        0.029208474746713686        0.3131140404567386        0.023165079365079368        0.45        
H_COOH        H        0.008397576402002723        0.48881417699557606        0.023165079365079368        0.45        
H_COOH        H        0.16684867108312806        -0.02564309636913831        0.023165079365079368        0.45        
H_COOH        H        0.23313579453525798        0.1893904304828042        0.023165079365079368        0.45        
H_COOH        H        0.2269726211432339        0.3243262209778328        0.023165079365079368        0.45        
H_COOH        H        0.1898846982972562        0.48811084476920297        0.023165079365079368        0.45        
H_COOH        H        0.42070864391926255        0.004453564251245524        0.023165079365079368        0.45        
H_COOH        H        0.3825555057107943        0.15533360298643123        0.023165079365079368        0.45        
H_COOH        H        0.412949603926921        0.32215450165272047        0.023165079365079368        0.45        
H_COOH        H        0.4202490247241694        0.521483981770277        0.023165079365079368        0.45        
H_COOH        H        0.6100760276331652        0.014744593150631547        0.023165079365079368        0.45        
H_COOH        H        0.559953550208266        0.15478543627639665        0.023165079365079368        0.45        
H_COOH        H        0.5971397205360919        0.318159900575877        0.023165079365079368        0.45        
H_COOH        H        0.5156811789220029        0.5275725263941391        0.023165079365079368        0.45        
H_COOH        H        0.7659613696599146        -0.027646580612306085        0.023165079365079368        0.45        
H_COOH        H        0.7822946350574924        0.16763934299386998        0.023165079365079368        0.45        
H_COOH        H        0.72151665930299        0.3125490822475036        0.023165079365079368        0.45        
H_COOH        H        0.7045658661440573        0.522063521859293        0.023165079365079368        0.45        
H_COOH        H        0.977169958006483        -0.00870614861814462        0.023165079365079368        0.45        
H_COOH        H        0.970159052803348        0.16798688493210706        0.023165079365079368        0.45        
H_COOH        H        0.9079344330109466        0.31340059974906465        0.023165079365079368        0.45        
H_COOH        H        0.9631397728545448        0.4957221128974682        0.023165079365079368        0.45        
H_COOH        H        -0.03452189992279341        0.6513666923364438        0.023165079365079368        0.45        
H_COOH        H        0.2350819285789531        0.6814908206870486        0.023165079365079368        0.45        
H_COOH        H        0.38229356487914273        0.6367742467214407        0.023165079365079368        0.45        
H_COOH        H        0.6022841279452387        0.6581370006943125        0.023165079365079368        0.45        
H_COOH        H        0.7495096353634344        0.6362012203440717        0.023165079365079368        0.45        
H_COOH        H        0.8897981892951181        0.6839149133431027        0.023165079365079368        0.45        
H_COOH        H        0.04031007474230403        0.8441545112464955        0.023165079365079368        0.45        
H_COOH        H        0.21679313427430738        0.8316994716787834        0.023165079365079368        0.45        
H_COOH        H        0.41568829425547        0.8447777167091581        0.023165079365079368        0.45        
H_COOH        H        0.5242747680660367        0.8410474237869913        0.023165079365079368        0.45        
H_COOH        H        0.7349131222496501        0.8238955320717928        0.023165079365079368        0.45        
H_COOH        H        0.9306151196078611        0.8218952149826907        0.023165079365079368        0.45        
H_COOH        H        -0.045920940145893624        0.005202278844276282        0.4269729365079365        0.45        
H_COOH        H        -0.030615324954052184        0.1661273609138049        0.4269729365079365        0.45        
H_COOH        H        -0.018357616388024994        0.30663485496349535        0.4269729365079365        0.45        
H_COOH        H        -0.044361508029196264        0.5189894184979876        0.4269729365079365        0.45        
H_COOH        H        0.23521778998306495        0.018425633025302344        0.4269729365079365        0.45        
H_COOH        H        0.1586797836178632        0.16465976285753717        0.4269729365079365        0.45        
H_COOH        H        0.20873811216121343        0.3079841817363454        0.4269729365079365        0.45        
H_COOH        H        0.2081702052789965        0.49288421185420034        0.4269729365079365        0.45        
H_COOH        H        0.3325432990647216        -0.0038417539616382584        0.4269729365079365        0.45        
H_COOH        H        0.40191512570013754        0.16325204096707832        0.4269729365079365        0.45        
H_COOH        H        0.41717433898251793        0.3289350126392634        0.4269729365079365        0.45        
H_COOH        H        0.36691376369680584        0.4887581285266598        0.4269729365079365        0.45        
H_COOH        H        0.6014029593217464        -0.009848645330159844        0.4269729365079365        0.45        
H_COOH        H        0.6088856693000605        0.19220845225040709        0.4269729365079365        0.45        
H_COOH        H        0.5286618258444401        0.3173120938016808        0.4269729365079365        0.45        
H_COOH        H        0.5601866744629099        0.488107233444337        0.4269729365079365        0.45        
H_COOH        H        0.7037690525965495        0.006385284500146794        0.4269729365079365        0.45        
H_COOH        H        0.7901987284793917        0.17730793367471032        0.4269729365079365        0.45        
H_COOH        H        0.719187935449658        0.3144462268048413        0.4269729365079365        0.45        
H_COOH        H        0.7885769303351111        0.5082039296696165        0.4269729365079365        0.45        
H_COOH        H        0.9818719278931234        0.0004984351472860003        0.4269729365079365        0.45        
H_COOH        H        0.9619284076918713        0.16162164080172664        0.4269729365079365        0.45        
H_COOH        H        0.9127989927470199        0.30993868400520463        0.4269729365079365        0.45        
H_COOH        H        0.8920588476175653        0.5220859850215942        0.4269729365079365        0.45        
H_COOH        H        -0.046916376175524244        0.6762451449773955        0.4269729365079365        0.45        
H_COOH        H        0.2165747081649354        0.6463421304882845        0.4269729365079365        0.45        
H_COOH        H        0.41907438424989335        0.6664116483161326        0.4269729365079365        0.45        
H_COOH        H        0.6098187621077947        0.6788633769105886        0.4269729365079365        0.45        
H_COOH        H        0.7040443930362327        0.6719959177793933        0.4269729365079365        0.45        
H_COOH        H        0.8962030663962842        0.6606426678159253        0.4269729365079365        0.45        
H_COOH        H        -0.028195809755997846        0.8308491824288895        0.4269729365079365        0.45        
H_COOH        H        0.20330324271460642        0.8241471216228797        0.4269729365079365        0.45        
H_COOH        H        0.33235345693226315        0.8483932836591438        0.4269729365079365        0.45        
H_COOH        H        0.5975317076467453        0.8371077871769409        0.4269729365079365        0.45        
H_COOH        H        0.7975876085904041        0.8667527301609598        0.4269729365079365        0.45        
H_COOH        H        0.8992429760806419        0.8410911534510986        0.4269729365079365        0.45        
