data_graphite_ortho

_audit_creation_method RASPA-1.0
_audit_creation_date 2012-2-3
_audit_author_name 'David Dubbeldam'

_cell_length_a    39.36    
_cell_length_b    38.34    
_cell_length_c    15.6    
_cell_angle_alpha 90
_cell_angle_beta  90
_cell_angle_gamma 90
_cell_volume      23541.37      

_symmetry_cell_setting          triclinic
_symmetry_space_group_name_Hall 'P 1'
_symmetry_space_group_name_H-M  'P 1'
_symmetry_Int_Tables_number     1

_symmetry_equiv_pos_as_xyz 'x,y,z'

loop_
_atom_site_label
_atom_site_type_symbol
_atom_site_fract_x
_atom_site_fract_y
_atom_site_fract_z
_atom_site_charge
C_FG        C        0.0        0.018519        0.11341019230769231        0.2        
C2        C        0.03125        0.074075        0.11341019230769231        0        
C3        C        0.0        0.092592        0.11341019230769231        0        
C4        C        0.03125        0.037037        0.11341019230769231        0        
C_FG        C        0.0        0.12963        0.11341019230769231        0.2        
C2        C        0.03125        0.185185        0.11341019230769231        0        
C3        C        0.0        0.203703        0.11341019230769231        0        
C4        C        0.03125        0.148148        0.11341019230769231        0        
C_FG        C        0.0        0.24074099999999998        0.11341019230769231        0.2        
C2        C        0.03125        0.296297        0.11341019230769231        0        
C3        C        0.0        0.314815        0.11341019230769231        0        
C4        C        0.03125        0.259259        0.11341019230769231        0        
C_FG        C        0.0        0.351852        0.11341019230769231        0.2        
C2        C        0.03125        0.407408        0.11341019230769231        0        
C3        C        0.0        0.42592500000000005        0.11341019230769231        0        
C4        C        0.03125        0.37037        0.11341019230769231        0        
C_FG        C        0.0        0.46296300000000007        0.11341019230769231        0.2        
C2        C        0.03125        0.518519        0.11341019230769231        0        
C3        C        0.0        0.537037        0.11341019230769231        0        
C4        C        0.03125        0.481481        0.11341019230769231        0        
C_FG        C        0.0        0.574075        0.11341019230769231        0.2        
C2        C        0.03125        0.62963        0.11341019230769231        0        
C3        C        0.0        0.648148        0.11341019230769231        0        
C4        C        0.03125        0.592592        0.11341019230769231        0        
C1        C        0.0625        0.018519        0.11341019230769231        0        
C2        C        0.09375        0.074075        0.11341019230769231        0        
C3        C        0.0625        0.092592        0.11341019230769231        0        
C4        C        0.09375        0.037037        0.11341019230769231        0        
C1        C        0.0625        0.12963        0.11341019230769231        0        
C2        C        0.09375        0.185185        0.11341019230769231        0        
C3        C        0.0625        0.203703        0.11341019230769231        0        
C4        C        0.09375        0.148148        0.11341019230769231        0        
C1        C        0.0625        0.24074099999999998        0.11341019230769231        0        
C2        C        0.09375        0.296297        0.11341019230769231        0        
C3        C        0.0625        0.314815        0.11341019230769231        0        
C4        C        0.09375        0.259259        0.11341019230769231        0        
C1        C        0.0625        0.351852        0.11341019230769231        0        
C2        C        0.09375        0.407408        0.11341019230769231        0        
C3        C        0.0625        0.42592500000000005        0.11341019230769231        0        
C4        C        0.09375        0.37037        0.11341019230769231        0        
C1        C        0.0625        0.46296300000000007        0.11341019230769231        0        
C2        C        0.09375        0.518519        0.11341019230769231        0        
C3        C        0.0625        0.537037        0.11341019230769231        0        
C4        C        0.09375        0.481481        0.11341019230769231        0        
C1        C        0.0625        0.574075        0.11341019230769231        0        
C2        C        0.09375        0.62963        0.11341019230769231        0        
C3        C        0.0625        0.648148        0.11341019230769231        0        
C4        C        0.09375        0.592592        0.11341019230769231        0        
C_FG        C        0.125        0.018519        0.11341019230769231        0.2        
C2        C        0.15625        0.074075        0.11341019230769231        0        
C3        C        0.125        0.092592        0.11341019230769231        0        
C4        C        0.15625        0.037037        0.11341019230769231        0        
C_FG        C        0.125        0.12963        0.11341019230769231        0.2        
C2        C        0.15625        0.185185        0.11341019230769231        0        
C3        C        0.125        0.203703        0.11341019230769231        0        
C4        C        0.15625        0.148148        0.11341019230769231        0        
C_FG        C        0.125        0.24074099999999998        0.11341019230769231        0.2        
C2        C        0.15625        0.296297        0.11341019230769231        0        
C3        C        0.125        0.314815        0.11341019230769231        0        
C4        C        0.15625        0.259259        0.11341019230769231        0        
C_FG        C        0.125        0.351852        0.11341019230769231        0.2        
C2        C        0.15625        0.407408        0.11341019230769231        0        
C3        C        0.125        0.42592500000000005        0.11341019230769231        0        
C4        C        0.15625        0.37037        0.11341019230769231        0        
C_FG        C        0.125        0.46296300000000007        0.11341019230769231        0.2        
C2        C        0.15625        0.518519        0.11341019230769231        0        
C3        C        0.125        0.537037        0.11341019230769231        0        
C4        C        0.15625        0.481481        0.11341019230769231        0        
C_FG        C        0.125        0.574075        0.11341019230769231        0.2        
C2        C        0.15625        0.62963        0.11341019230769231        0        
C3        C        0.125        0.648148        0.11341019230769231        0        
C4        C        0.15625        0.592592        0.11341019230769231        0        
C1        C        0.1875        0.018519        0.11341019230769231        0        
C2        C        0.21875        0.074075        0.11341019230769231        0        
C3        C        0.1875        0.092592        0.11341019230769231        0        
C4        C        0.21875        0.037037        0.11341019230769231        0        
C1        C        0.1875        0.12963        0.11341019230769231        0        
C2        C        0.21875        0.185185        0.11341019230769231        0        
C3        C        0.1875        0.203703        0.11341019230769231        0        
C4        C        0.21875        0.148148        0.11341019230769231        0        
C1        C        0.1875        0.24074099999999998        0.11341019230769231        0        
C2        C        0.21875        0.296297        0.11341019230769231        0        
C3        C        0.1875        0.314815        0.11341019230769231        0        
C4        C        0.21875        0.259259        0.11341019230769231        0        
C1        C        0.1875        0.351852        0.11341019230769231        0        
C2        C        0.21875        0.407408        0.11341019230769231        0        
C3        C        0.1875        0.42592500000000005        0.11341019230769231        0        
C4        C        0.21875        0.37037        0.11341019230769231        0        
C1        C        0.1875        0.46296300000000007        0.11341019230769231        0        
C2        C        0.21875        0.518519        0.11341019230769231        0        
C3        C        0.1875        0.537037        0.11341019230769231        0        
C4        C        0.21875        0.481481        0.11341019230769231        0        
C1        C        0.1875        0.574075        0.11341019230769231        0        
C2        C        0.21875        0.62963        0.11341019230769231        0        
C3        C        0.1875        0.648148        0.11341019230769231        0        
C4        C        0.21875        0.592592        0.11341019230769231        0        
C_FG        C        0.25        0.018519        0.11341019230769231        0.2        
C2        C        0.28125        0.074075        0.11341019230769231        0        
C3        C        0.25        0.092592        0.11341019230769231        0        
C4        C        0.28125        0.037037        0.11341019230769231        0        
C_FG        C        0.25        0.12963        0.11341019230769231        0.2        
C2        C        0.28125        0.185185        0.11341019230769231        0        
C3        C        0.25        0.203703        0.11341019230769231        0        
C4        C        0.28125        0.148148        0.11341019230769231        0        
C_FG        C        0.25        0.24074099999999998        0.11341019230769231        0.2        
C2        C        0.28125        0.296297        0.11341019230769231        0        
C3        C        0.25        0.314815        0.11341019230769231        0        
C4        C        0.28125        0.259259        0.11341019230769231        0        
C_FG        C        0.25        0.351852        0.11341019230769231        0.2        
C2        C        0.28125        0.407408        0.11341019230769231        0        
C3        C        0.25        0.42592500000000005        0.11341019230769231        0        
C4        C        0.28125        0.37037        0.11341019230769231        0        
C_FG        C        0.25        0.46296300000000007        0.11341019230769231        0.2        
C2        C        0.28125        0.518519        0.11341019230769231        0        
C3        C        0.25        0.537037        0.11341019230769231        0        
C4        C        0.28125        0.481481        0.11341019230769231        0        
C_FG        C        0.25        0.574075        0.11341019230769231        0.2        
C2        C        0.28125        0.62963        0.11341019230769231        0        
C3        C        0.25        0.648148        0.11341019230769231        0        
C4        C        0.28125        0.592592        0.11341019230769231        0        
C1        C        0.3125        0.018519        0.11341019230769231        0        
C2        C        0.34375        0.074075        0.11341019230769231        0        
C3        C        0.3125        0.092592        0.11341019230769231        0        
C4        C        0.34375        0.037037        0.11341019230769231        0        
C1        C        0.3125        0.12963        0.11341019230769231        0        
C2        C        0.34375        0.185185        0.11341019230769231        0        
C3        C        0.3125        0.203703        0.11341019230769231        0        
C4        C        0.34375        0.148148        0.11341019230769231        0        
C1        C        0.3125        0.24074099999999998        0.11341019230769231        0        
C2        C        0.34375        0.296297        0.11341019230769231        0        
C3        C        0.3125        0.314815        0.11341019230769231        0        
C4        C        0.34375        0.259259        0.11341019230769231        0        
C1        C        0.3125        0.351852        0.11341019230769231        0        
C2        C        0.34375        0.407408        0.11341019230769231        0        
C3        C        0.3125        0.42592500000000005        0.11341019230769231        0        
C4        C        0.34375        0.37037        0.11341019230769231        0        
C1        C        0.3125        0.46296300000000007        0.11341019230769231        0        
C2        C        0.34375        0.518519        0.11341019230769231        0        
C3        C        0.3125        0.537037        0.11341019230769231        0        
C4        C        0.34375        0.481481        0.11341019230769231        0        
C1        C        0.3125        0.574075        0.11341019230769231        0        
C2        C        0.34375        0.62963        0.11341019230769231        0        
C3        C        0.3125        0.648148        0.11341019230769231        0        
C4        C        0.34375        0.592592        0.11341019230769231        0        
C_FG        C        0.375        0.018519        0.11341019230769231        0.2        
C2        C        0.40625        0.074075        0.11341019230769231        0        
C3        C        0.375        0.092592        0.11341019230769231        0        
C4        C        0.40625        0.037037        0.11341019230769231        0        
C_FG        C        0.375        0.12963        0.11341019230769231        0.2        
C2        C        0.40625        0.185185        0.11341019230769231        0        
C3        C        0.375        0.203703        0.11341019230769231        0        
C4        C        0.40625        0.148148        0.11341019230769231        0        
C_FG        C        0.375        0.24074099999999998        0.11341019230769231        0.2        
C2        C        0.40625        0.296297        0.11341019230769231        0        
C3        C        0.375        0.314815        0.11341019230769231        0        
C4        C        0.40625        0.259259        0.11341019230769231        0        
C_FG        C        0.375        0.351852        0.11341019230769231        0.2        
C2        C        0.40625        0.407408        0.11341019230769231        0        
C3        C        0.375        0.42592500000000005        0.11341019230769231        0        
C4        C        0.40625        0.37037        0.11341019230769231        0        
C_FG        C        0.375        0.46296300000000007        0.11341019230769231        0.2        
C2        C        0.40625        0.518519        0.11341019230769231        0        
C3        C        0.375        0.537037        0.11341019230769231        0        
C4        C        0.40625        0.481481        0.11341019230769231        0        
C_FG        C        0.375        0.574075        0.11341019230769231        0.2        
C2        C        0.40625        0.62963        0.11341019230769231        0        
C3        C        0.375        0.648148        0.11341019230769231        0        
C4        C        0.40625        0.592592        0.11341019230769231        0        
C1        C        0.4375        0.018519        0.11341019230769231        0        
C2        C        0.46875        0.074075        0.11341019230769231        0        
C3        C        0.4375        0.092592        0.11341019230769231        0        
C4        C        0.46875        0.037037        0.11341019230769231        0        
C1        C        0.4375        0.12963        0.11341019230769231        0        
C2        C        0.46875        0.185185        0.11341019230769231        0        
C3        C        0.4375        0.203703        0.11341019230769231        0        
C4        C        0.46875        0.148148        0.11341019230769231        0        
C1        C        0.4375        0.24074099999999998        0.11341019230769231        0        
C2        C        0.46875        0.296297        0.11341019230769231        0        
C3        C        0.4375        0.314815        0.11341019230769231        0        
C4        C        0.46875        0.259259        0.11341019230769231        0        
C1        C        0.4375        0.351852        0.11341019230769231        0        
C2        C        0.46875        0.407408        0.11341019230769231        0        
C3        C        0.4375        0.42592500000000005        0.11341019230769231        0        
C4        C        0.46875        0.37037        0.11341019230769231        0        
C1        C        0.4375        0.46296300000000007        0.11341019230769231        0        
C2        C        0.46875        0.518519        0.11341019230769231        0        
C3        C        0.4375        0.537037        0.11341019230769231        0        
C4        C        0.46875        0.481481        0.11341019230769231        0        
C1        C        0.4375        0.574075        0.11341019230769231        0        
C2        C        0.46875        0.62963        0.11341019230769231        0        
C3        C        0.4375        0.648148        0.11341019230769231        0        
C4        C        0.46875        0.592592        0.11341019230769231        0        
C_FG        C        0.5        0.018519        0.11341019230769231        0.2        
C2        C        0.53125        0.074075        0.11341019230769231        0        
C3        C        0.5        0.092592        0.11341019230769231        0        
C4        C        0.53125        0.037037        0.11341019230769231        0        
C_FG        C        0.5        0.12963        0.11341019230769231        0.2        
C2        C        0.53125        0.185185        0.11341019230769231        0        
C3        C        0.5        0.203703        0.11341019230769231        0        
C4        C        0.53125        0.148148        0.11341019230769231        0        
C_FG        C        0.5        0.24074099999999998        0.11341019230769231        0.2        
C2        C        0.53125        0.296297        0.11341019230769231        0        
C3        C        0.5        0.314815        0.11341019230769231        0        
C4        C        0.53125        0.259259        0.11341019230769231        0        
C_FG        C        0.5        0.351852        0.11341019230769231        0.2        
C2        C        0.53125        0.407408        0.11341019230769231        0        
C3        C        0.5        0.42592500000000005        0.11341019230769231        0        
C4        C        0.53125        0.37037        0.11341019230769231        0        
C_FG        C        0.5        0.46296300000000007        0.11341019230769231        0.2        
C2        C        0.53125        0.518519        0.11341019230769231        0        
C3        C        0.5        0.537037        0.11341019230769231        0        
C4        C        0.53125        0.481481        0.11341019230769231        0        
C_FG        C        0.5        0.574075        0.11341019230769231        0.2        
C2        C        0.53125        0.62963        0.11341019230769231        0        
C3        C        0.5        0.648148        0.11341019230769231        0        
C4        C        0.53125        0.592592        0.11341019230769231        0        
C1        C        0.5625        0.018519        0.11341019230769231        0        
C2        C        0.59375        0.074075        0.11341019230769231        0        
C3        C        0.5625        0.092592        0.11341019230769231        0        
C4        C        0.59375        0.037037        0.11341019230769231        0        
C1        C        0.5625        0.12963        0.11341019230769231        0        
C2        C        0.59375        0.185185        0.11341019230769231        0        
C3        C        0.5625        0.203703        0.11341019230769231        0        
C4        C        0.59375        0.148148        0.11341019230769231        0        
C1        C        0.5625        0.24074099999999998        0.11341019230769231        0        
C2        C        0.59375        0.296297        0.11341019230769231        0        
C3        C        0.5625        0.314815        0.11341019230769231        0        
C4        C        0.59375        0.259259        0.11341019230769231        0        
C1        C        0.5625        0.351852        0.11341019230769231        0        
C2        C        0.59375        0.407408        0.11341019230769231        0        
C3        C        0.5625        0.42592500000000005        0.11341019230769231        0        
C4        C        0.59375        0.37037        0.11341019230769231        0        
C1        C        0.5625        0.46296300000000007        0.11341019230769231        0        
C2        C        0.59375        0.518519        0.11341019230769231        0        
C3        C        0.5625        0.537037        0.11341019230769231        0        
C4        C        0.59375        0.481481        0.11341019230769231        0        
C1        C        0.5625        0.574075        0.11341019230769231        0        
C2        C        0.59375        0.62963        0.11341019230769231        0        
C3        C        0.5625        0.648148        0.11341019230769231        0        
C4        C        0.59375        0.592592        0.11341019230769231        0        
C_FG        C        0.625        0.018519        0.11341019230769231        0.2        
C2        C        0.65625        0.074075        0.11341019230769231        0        
C3        C        0.625        0.092592        0.11341019230769231        0        
C4        C        0.65625        0.037037        0.11341019230769231        0        
C_FG        C        0.625        0.12963        0.11341019230769231        0.2        
C2        C        0.65625        0.185185        0.11341019230769231        0        
C3        C        0.625        0.203703        0.11341019230769231        0        
C4        C        0.65625        0.148148        0.11341019230769231        0        
C_FG        C        0.625        0.24074099999999998        0.11341019230769231        0.2        
C2        C        0.65625        0.296297        0.11341019230769231        0        
C3        C        0.625        0.314815        0.11341019230769231        0        
C4        C        0.65625        0.259259        0.11341019230769231        0        
C_FG        C        0.625        0.351852        0.11341019230769231        0.2        
C2        C        0.65625        0.407408        0.11341019230769231        0        
C3        C        0.625        0.42592500000000005        0.11341019230769231        0        
C4        C        0.65625        0.37037        0.11341019230769231        0        
C_FG        C        0.625        0.46296300000000007        0.11341019230769231        0.2        
C2        C        0.65625        0.518519        0.11341019230769231        0        
C3        C        0.625        0.537037        0.11341019230769231        0        
C4        C        0.65625        0.481481        0.11341019230769231        0        
C_FG        C        0.625        0.574075        0.11341019230769231        0.2        
C2        C        0.65625        0.62963        0.11341019230769231        0        
C3        C        0.625        0.648148        0.11341019230769231        0        
C4        C        0.65625        0.592592        0.11341019230769231        0        
C1        C        0.6875        0.018519        0.11341019230769231        0        
C2        C        0.71875        0.074075        0.11341019230769231        0        
C3        C        0.6875        0.092592        0.11341019230769231        0        
C4        C        0.71875        0.037037        0.11341019230769231        0        
C1        C        0.6875        0.12963        0.11341019230769231        0        
C2        C        0.71875        0.185185        0.11341019230769231        0        
C3        C        0.6875        0.203703        0.11341019230769231        0        
C4        C        0.71875        0.148148        0.11341019230769231        0        
C1        C        0.6875        0.24074099999999998        0.11341019230769231        0        
C2        C        0.71875        0.296297        0.11341019230769231        0        
C3        C        0.6875        0.314815        0.11341019230769231        0        
C4        C        0.71875        0.259259        0.11341019230769231        0        
C1        C        0.6875        0.351852        0.11341019230769231        0        
C2        C        0.71875        0.407408        0.11341019230769231        0        
C3        C        0.6875        0.42592500000000005        0.11341019230769231        0        
C4        C        0.71875        0.37037        0.11341019230769231        0        
C1        C        0.6875        0.46296300000000007        0.11341019230769231        0        
C2        C        0.71875        0.518519        0.11341019230769231        0        
C3        C        0.6875        0.537037        0.11341019230769231        0        
C4        C        0.71875        0.481481        0.11341019230769231        0        
C1        C        0.6875        0.574075        0.11341019230769231        0        
C2        C        0.71875        0.62963        0.11341019230769231        0        
C3        C        0.6875        0.648148        0.11341019230769231        0        
C4        C        0.71875        0.592592        0.11341019230769231        0        
C_FG        C        0.75        0.018519        0.11341019230769231        0.2        
C2        C        0.78125        0.074075        0.11341019230769231        0        
C3        C        0.75        0.092592        0.11341019230769231        0        
C4        C        0.78125        0.037037        0.11341019230769231        0        
C_FG        C        0.75        0.12963        0.11341019230769231        0.2        
C2        C        0.78125        0.185185        0.11341019230769231        0        
C3        C        0.75        0.203703        0.11341019230769231        0        
C4        C        0.78125        0.148148        0.11341019230769231        0        
C_FG        C        0.75        0.24074099999999998        0.11341019230769231        0.2        
C2        C        0.78125        0.296297        0.11341019230769231        0        
C3        C        0.75        0.314815        0.11341019230769231        0        
C4        C        0.78125        0.259259        0.11341019230769231        0        
C_FG        C        0.75        0.351852        0.11341019230769231        0.2        
C2        C        0.78125        0.407408        0.11341019230769231        0        
C3        C        0.75        0.42592500000000005        0.11341019230769231        0        
C4        C        0.78125        0.37037        0.11341019230769231        0        
C_FG        C        0.75        0.46296300000000007        0.11341019230769231        0.2        
C2        C        0.78125        0.518519        0.11341019230769231        0        
C3        C        0.75        0.537037        0.11341019230769231        0        
C4        C        0.78125        0.481481        0.11341019230769231        0        
C_FG        C        0.75        0.574075        0.11341019230769231        0.2        
C2        C        0.78125        0.62963        0.11341019230769231        0        
C3        C        0.75        0.648148        0.11341019230769231        0        
C4        C        0.78125        0.592592        0.11341019230769231        0        
C1        C        0.8125        0.018519        0.11341019230769231        0        
C2        C        0.84375        0.074075        0.11341019230769231        0        
C3        C        0.8125        0.092592        0.11341019230769231        0        
C4        C        0.84375        0.037037        0.11341019230769231        0        
C1        C        0.8125        0.12963        0.11341019230769231        0        
C2        C        0.84375        0.185185        0.11341019230769231        0        
C3        C        0.8125        0.203703        0.11341019230769231        0        
C4        C        0.84375        0.148148        0.11341019230769231        0        
C1        C        0.8125        0.24074099999999998        0.11341019230769231        0        
C2        C        0.84375        0.296297        0.11341019230769231        0        
C3        C        0.8125        0.314815        0.11341019230769231        0        
C4        C        0.84375        0.259259        0.11341019230769231        0        
C1        C        0.8125        0.351852        0.11341019230769231        0        
C2        C        0.84375        0.407408        0.11341019230769231        0        
C3        C        0.8125        0.42592500000000005        0.11341019230769231        0        
C4        C        0.84375        0.37037        0.11341019230769231        0        
C1        C        0.8125        0.46296300000000007        0.11341019230769231        0        
C2        C        0.84375        0.518519        0.11341019230769231        0        
C3        C        0.8125        0.537037        0.11341019230769231        0        
C4        C        0.84375        0.481481        0.11341019230769231        0        
C1        C        0.8125        0.574075        0.11341019230769231        0        
C2        C        0.84375        0.62963        0.11341019230769231        0        
C3        C        0.8125        0.648148        0.11341019230769231        0        
C4        C        0.84375        0.592592        0.11341019230769231        0        
C_FG        C        0.875        0.018519        0.11341019230769231        0.2        
C2        C        0.9062500000000001        0.074075        0.11341019230769231        0        
C3        C        0.875        0.092592        0.11341019230769231        0        
C4        C        0.9062500000000001        0.037037        0.11341019230769231        0        
C_FG        C        0.875        0.12963        0.11341019230769231        0.2        
C2        C        0.9062500000000001        0.185185        0.11341019230769231        0        
C3        C        0.875        0.203703        0.11341019230769231        0        
C4        C        0.9062500000000001        0.148148        0.11341019230769231        0        
C_FG        C        0.875        0.24074099999999998        0.11341019230769231        0.2        
C2        C        0.9062500000000001        0.296297        0.11341019230769231        0        
C3        C        0.875        0.314815        0.11341019230769231        0        
C4        C        0.9062500000000001        0.259259        0.11341019230769231        0        
C_FG        C        0.875        0.351852        0.11341019230769231        0.2        
C2        C        0.9062500000000001        0.407408        0.11341019230769231        0        
C3        C        0.875        0.42592500000000005        0.11341019230769231        0        
C4        C        0.9062500000000001        0.37037        0.11341019230769231        0        
C_FG        C        0.875        0.46296300000000007        0.11341019230769231        0.2        
C2        C        0.9062500000000001        0.518519        0.11341019230769231        0        
C3        C        0.875        0.537037        0.11341019230769231        0        
C4        C        0.9062500000000001        0.481481        0.11341019230769231        0        
C_FG        C        0.875        0.574075        0.11341019230769231        0.2        
C2        C        0.9062500000000001        0.62963        0.11341019230769231        0        
C3        C        0.875        0.648148        0.11341019230769231        0        
C4        C        0.9062500000000001        0.592592        0.11341019230769231        0        
C1        C        0.9375        0.018519        0.11341019230769231        0        
C2        C        0.9687500000000001        0.074075        0.11341019230769231        0        
C3        C        0.9375        0.092592        0.11341019230769231        0        
C4        C        0.9687500000000001        0.037037        0.11341019230769231        0        
C1        C        0.9375        0.12963        0.11341019230769231        0        
C2        C        0.9687500000000001        0.185185        0.11341019230769231        0        
C3        C        0.9375        0.203703        0.11341019230769231        0        
C4        C        0.9687500000000001        0.148148        0.11341019230769231        0        
C1        C        0.9375        0.24074099999999998        0.11341019230769231        0        
C2        C        0.9687500000000001        0.296297        0.11341019230769231        0        
C3        C        0.9375        0.314815        0.11341019230769231        0        
C4        C        0.9687500000000001        0.259259        0.11341019230769231        0        
C1        C        0.9375        0.351852        0.11341019230769231        0        
C2        C        0.9687500000000001        0.407408        0.11341019230769231        0        
C3        C        0.9375        0.42592500000000005        0.11341019230769231        0        
C4        C        0.9687500000000001        0.37037        0.11341019230769231        0        
C1        C        0.9375        0.46296300000000007        0.11341019230769231        0        
C2        C        0.9687500000000001        0.518519        0.11341019230769231        0        
C3        C        0.9375        0.537037        0.11341019230769231        0        
C4        C        0.9687500000000001        0.481481        0.11341019230769231        0        
C1        C        0.9375        0.574075        0.11341019230769231        0        
C2        C        0.9687500000000001        0.62963        0.11341019230769231        0        
C3        C        0.9375        0.648148        0.11341019230769231        0        
C4        C        0.9687500000000001        0.592592        0.11341019230769231        0        
C_FG        C        0.0        0.685186        0.11341019230769231        0.2        
C1        C        0.0625        0.685186        0.11341019230769231        0        
C_FG        C        0.125        0.685186        0.11341019230769231        0.2        
C1        C        0.1875        0.685186        0.11341019230769231        0        
C_FG        C        0.25        0.685186        0.11341019230769231        0.2        
C1        C        0.3125        0.685186        0.11341019230769231        0        
C_FG        C        0.375        0.685186        0.11341019230769231        0.2        
C1        C        0.4375        0.685186        0.11341019230769231        0        
C_FG        C        0.5        0.685186        0.11341019230769231        0.2        
C1        C        0.5625        0.685186        0.11341019230769231        0        
C_FG        C        0.625        0.685186        0.11341019230769231        0.2        
C1        C        0.6875        0.685186        0.11341019230769231        0        
C_FG        C        0.75        0.685186        0.11341019230769231        0.2        
C1        C        0.8125        0.685186        0.11341019230769231        0        
C_FG        C        0.875        0.685186        0.11341019230769231        0.2        
C1        C        0.9375        0.685186        0.11341019230769231        0        
C2        C        0.03125        0.740741        0.11341019230769231        0        
C2        C        0.09375        0.740741        0.11341019230769231        0        
C2        C        0.15625        0.740741        0.11341019230769231        0        
C2        C        0.21875        0.740741        0.11341019230769231        0        
C2        C        0.28125        0.740741        0.11341019230769231        0        
C2        C        0.34375        0.740741        0.11341019230769231        0        
C2        C        0.40625        0.740741        0.11341019230769231        0        
C2        C        0.46875        0.740741        0.11341019230769231        0        
C2        C        0.53125        0.740741        0.11341019230769231        0        
C2        C        0.59375        0.740741        0.11341019230769231        0        
C2        C        0.65625        0.740741        0.11341019230769231        0        
C2        C        0.71875        0.740741        0.11341019230769231        0        
C2        C        0.78125        0.740741        0.11341019230769231        0        
C2        C        0.84375        0.740741        0.11341019230769231        0        
C2        C        0.9062500000000001        0.740741        0.11341019230769231        0        
C2        C        0.9687500000000001        0.740741        0.11341019230769231        0        
C3        C        0.0        0.759259        0.11341019230769231        0        
C3        C        0.0625        0.759259        0.11341019230769231        0        
C3        C        0.125        0.759259        0.11341019230769231        0        
C3        C        0.1875        0.759259        0.11341019230769231        0        
C3        C        0.25        0.759259        0.11341019230769231        0        
C3        C        0.3125        0.759259        0.11341019230769231        0        
C3        C        0.375        0.759259        0.11341019230769231        0        
C3        C        0.4375        0.759259        0.11341019230769231        0        
C3        C        0.5        0.759259        0.11341019230769231        0        
C3        C        0.5625        0.759259        0.11341019230769231        0        
C3        C        0.625        0.759259        0.11341019230769231        0        
C3        C        0.6875        0.759259        0.11341019230769231        0        
C3        C        0.75        0.759259        0.11341019230769231        0        
C3        C        0.8125        0.759259        0.11341019230769231        0        
C3        C        0.875        0.759259        0.11341019230769231        0        
C3        C        0.9375        0.759259        0.11341019230769231        0        
C4        C        0.03125        0.703703        0.11341019230769231        0        
C4        C        0.09375        0.703703        0.11341019230769231        0        
C4        C        0.15625        0.703703        0.11341019230769231        0        
C4        C        0.21875        0.703703        0.11341019230769231        0        
C4        C        0.28125        0.703703        0.11341019230769231        0        
C4        C        0.34375        0.703703        0.11341019230769231        0        
C4        C        0.40625        0.703703        0.11341019230769231        0        
C4        C        0.46875        0.703703        0.11341019230769231        0        
C4        C        0.53125        0.703703        0.11341019230769231        0        
C4        C        0.59375        0.703703        0.11341019230769231        0        
C4        C        0.65625        0.703703        0.11341019230769231        0        
C4        C        0.71875        0.703703        0.11341019230769231        0        
C4        C        0.78125        0.703703        0.11341019230769231        0        
C4        C        0.84375        0.703703        0.11341019230769231        0        
C4        C        0.9062500000000001        0.703703        0.11341019230769231        0        
C4        C        0.9687500000000001        0.703703        0.11341019230769231        0        
C_FG        C        0.0        0.796297        0.11341019230769231        0.2        
C1        C        0.0625        0.796297        0.11341019230769231        0        
C_FG        C        0.125        0.796297        0.11341019230769231        0.2        
C1        C        0.1875        0.796297        0.11341019230769231        0        
C_FG        C        0.25        0.796297        0.11341019230769231        0.2        
C1        C        0.3125        0.796297        0.11341019230769231        0        
C_FG        C        0.375        0.796297        0.11341019230769231        0.2        
C1        C        0.4375        0.796297        0.11341019230769231        0        
C_FG        C        0.5        0.796297        0.11341019230769231        0.2        
C1        C        0.5625        0.796297        0.11341019230769231        0        
C_FG        C        0.625        0.796297        0.11341019230769231        0.2        
C1        C        0.6875        0.796297        0.11341019230769231        0        
C_FG        C        0.75        0.796297        0.11341019230769231        0.2        
C1        C        0.8125        0.796297        0.11341019230769231        0        
C_FG        C        0.875        0.796297        0.11341019230769231        0.2        
C1        C        0.9375        0.796297        0.11341019230769231        0        
C2        C        0.03125        0.851852        0.11341019230769231        0        
C2        C        0.09375        0.851852        0.11341019230769231        0        
C2        C        0.15625        0.851852        0.11341019230769231        0        
C2        C        0.21875        0.851852        0.11341019230769231        0        
C2        C        0.28125        0.851852        0.11341019230769231        0        
C2        C        0.34375        0.851852        0.11341019230769231        0        
C2        C        0.40625        0.851852        0.11341019230769231        0        
C2        C        0.46875        0.851852        0.11341019230769231        0        
C2        C        0.53125        0.851852        0.11341019230769231        0        
C2        C        0.59375        0.851852        0.11341019230769231        0        
C2        C        0.65625        0.851852        0.11341019230769231        0        
C2        C        0.71875        0.851852        0.11341019230769231        0        
C2        C        0.78125        0.851852        0.11341019230769231        0        
C2        C        0.84375        0.851852        0.11341019230769231        0        
C2        C        0.9062500000000001        0.851852        0.11341019230769231        0        
C2        C        0.9687500000000001        0.851852        0.11341019230769231        0        
C3        C        0.0        0.87037        0.11341019230769231        0        
C3        C        0.0625        0.87037        0.11341019230769231        0        
C3        C        0.125        0.87037        0.11341019230769231        0        
C3        C        0.1875        0.87037        0.11341019230769231        0        
C3        C        0.25        0.87037        0.11341019230769231        0        
C3        C        0.3125        0.87037        0.11341019230769231        0        
C3        C        0.375        0.87037        0.11341019230769231        0        
C3        C        0.4375        0.87037        0.11341019230769231        0        
C3        C        0.5        0.87037        0.11341019230769231        0        
C3        C        0.5625        0.87037        0.11341019230769231        0        
C3        C        0.625        0.87037        0.11341019230769231        0        
C3        C        0.6875        0.87037        0.11341019230769231        0        
C3        C        0.75        0.87037        0.11341019230769231        0        
C3        C        0.8125        0.87037        0.11341019230769231        0        
C3        C        0.875        0.87037        0.11341019230769231        0        
C3        C        0.9375        0.87037        0.11341019230769231        0        
C4        C        0.03125        0.814814        0.11341019230769231        0        
C4        C        0.09375        0.814814        0.11341019230769231        0        
C4        C        0.15625        0.814814        0.11341019230769231        0        
C4        C        0.21875        0.814814        0.11341019230769231        0        
C4        C        0.28125        0.814814        0.11341019230769231        0        
C4        C        0.34375        0.814814        0.11341019230769231        0        
C4        C        0.40625        0.814814        0.11341019230769231        0        
C4        C        0.46875        0.814814        0.11341019230769231        0        
C4        C        0.53125        0.814814        0.11341019230769231        0        
C4        C        0.59375        0.814814        0.11341019230769231        0        
C4        C        0.65625        0.814814        0.11341019230769231        0        
C4        C        0.71875        0.814814        0.11341019230769231        0        
C4        C        0.78125        0.814814        0.11341019230769231        0        
C4        C        0.84375        0.814814        0.11341019230769231        0        
C4        C        0.9062500000000001        0.814814        0.11341019230769231        0        
C4        C        0.9687500000000001        0.814814        0.11341019230769231        0        
C_FG        C        0.0        0.907408        0.11341019230769231        0.2        
C1        C        0.0625        0.907408        0.11341019230769231        0        
C_FG        C        0.125        0.907408        0.11341019230769231        0.2        
C1        C        0.1875        0.907408        0.11341019230769231        0        
C_FG        C        0.25        0.907408        0.11341019230769231        0.2        
C1        C        0.3125        0.907408        0.11341019230769231        0        
C_FG        C        0.375        0.907408        0.11341019230769231        0.2        
C1        C        0.4375        0.907408        0.11341019230769231        0        
C_FG        C        0.5        0.907408        0.11341019230769231        0.2        
C1        C        0.5625        0.907408        0.11341019230769231        0        
C_FG        C        0.625        0.907408        0.11341019230769231        0.2        
C1        C        0.6875        0.907408        0.11341019230769231        0        
C_FG        C        0.75        0.907408        0.11341019230769231        0.2        
C1        C        0.8125        0.907408        0.11341019230769231        0        
C_FG        C        0.875        0.907408        0.11341019230769231        0.2        
C1        C        0.9375        0.907408        0.11341019230769231        0        
C2        C        0.03125        0.962963        0.11341019230769231        0        
C2        C        0.09375        0.962963        0.11341019230769231        0        
C2        C        0.15625        0.962963        0.11341019230769231        0        
C2        C        0.21875        0.962963        0.11341019230769231        0        
C2        C        0.28125        0.962963        0.11341019230769231        0        
C2        C        0.34375        0.962963        0.11341019230769231        0        
C2        C        0.40625        0.962963        0.11341019230769231        0        
C2        C        0.46875        0.962963        0.11341019230769231        0        
C2        C        0.53125        0.962963        0.11341019230769231        0        
C2        C        0.59375        0.962963        0.11341019230769231        0        
C2        C        0.65625        0.962963        0.11341019230769231        0        
C2        C        0.71875        0.962963        0.11341019230769231        0        
C2        C        0.78125        0.962963        0.11341019230769231        0        
C2        C        0.84375        0.962963        0.11341019230769231        0        
C2        C        0.9062500000000001        0.962963        0.11341019230769231        0        
C2        C        0.9687500000000001        0.962963        0.11341019230769231        0        
C3        C        0.0        0.9814809999999999        0.11341019230769231        0        
C3        C        0.0625        0.9814809999999999        0.11341019230769231        0        
C3        C        0.125        0.9814809999999999        0.11341019230769231        0        
C3        C        0.1875        0.9814809999999999        0.11341019230769231        0        
C3        C        0.25        0.9814809999999999        0.11341019230769231        0        
C3        C        0.3125        0.9814809999999999        0.11341019230769231        0        
C3        C        0.375        0.9814809999999999        0.11341019230769231        0        
C3        C        0.4375        0.9814809999999999        0.11341019230769231        0        
C3        C        0.5        0.9814809999999999        0.11341019230769231        0        
C3        C        0.5625        0.9814809999999999        0.11341019230769231        0        
C3        C        0.625        0.9814809999999999        0.11341019230769231        0        
C3        C        0.6875        0.9814809999999999        0.11341019230769231        0        
C3        C        0.75        0.9814809999999999        0.11341019230769231        0        
C3        C        0.8125        0.9814809999999999        0.11341019230769231        0        
C3        C        0.875        0.9814809999999999        0.11341019230769231        0        
C3        C        0.9375        0.9814809999999999        0.11341019230769231        0        
C4        C        0.03125        0.925925        0.11341019230769231        0        
C4        C        0.09375        0.925925        0.11341019230769231        0        
C4        C        0.15625        0.925925        0.11341019230769231        0        
C4        C        0.21875        0.925925        0.11341019230769231        0        
C4        C        0.28125        0.925925        0.11341019230769231        0        
C4        C        0.34375        0.925925        0.11341019230769231        0        
C4        C        0.40625        0.925925        0.11341019230769231        0        
C4        C        0.46875        0.925925        0.11341019230769231        0        
C4        C        0.53125        0.925925        0.11341019230769231        0        
C4        C        0.59375        0.925925        0.11341019230769231        0        
C4        C        0.65625        0.925925        0.11341019230769231        0        
C4        C        0.71875        0.925925        0.11341019230769231        0        
C4        C        0.78125        0.925925        0.11341019230769231        0        
C4        C        0.84375        0.925925        0.11341019230769231        0        
C4        C        0.9062500000000001        0.925925        0.11341019230769231        0        
C4        C        0.9687500000000001        0.925925        0.11341019230769231        0        
C1        C        0.0        0.018519        0.3281541923076923        0        
C2        C        0.03125        0.074075        0.3281541923076923        0        
C3        C        0.0        0.092592        0.3281541923076923        0        
C4        C        0.03125        0.037037        0.3281541923076923        0        
C1        C        0.0        0.12963        0.3281541923076923        0        
C2        C        0.03125        0.185185        0.3281541923076923        0        
C3        C        0.0        0.203703        0.3281541923076923        0        
C4        C        0.03125        0.148148        0.3281541923076923        0        
C1        C        0.0        0.24074099999999998        0.3281541923076923        0        
C2        C        0.03125        0.296297        0.3281541923076923        0        
C3        C        0.0        0.314815        0.3281541923076923        0        
C4        C        0.03125        0.259259        0.3281541923076923        0        
C1        C        0.0        0.351852        0.3281541923076923        0        
C2        C        0.03125        0.407408        0.3281541923076923        0        
C3        C        0.0        0.42592500000000005        0.3281541923076923        0        
C4        C        0.03125        0.37037        0.3281541923076923        0        
C1        C        0.0        0.46296300000000007        0.3281541923076923        0        
C2        C        0.03125        0.518519        0.3281541923076923        0        
C3        C        0.0        0.537037        0.3281541923076923        0        
C4        C        0.03125        0.481481        0.3281541923076923        0        
C1        C        0.0        0.574075        0.3281541923076923        0        
C2        C        0.03125        0.62963        0.3281541923076923        0        
C3        C        0.0        0.648148        0.3281541923076923        0        
C4        C        0.03125        0.592592        0.3281541923076923        0        
C1        C        0.0625        0.018519        0.3281541923076923        0        
C2        C        0.09375        0.074075        0.3281541923076923        0        
C3        C        0.0625        0.092592        0.3281541923076923        0        
C4        C        0.09375        0.037037        0.3281541923076923        0        
C1        C        0.0625        0.12963        0.3281541923076923        0        
C2        C        0.09375        0.185185        0.3281541923076923        0        
C3        C        0.0625        0.203703        0.3281541923076923        0        
C4        C        0.09375        0.148148        0.3281541923076923        0        
C1        C        0.0625        0.24074099999999998        0.3281541923076923        0        
C2        C        0.09375        0.296297        0.3281541923076923        0        
C3        C        0.0625        0.314815        0.3281541923076923        0        
C4        C        0.09375        0.259259        0.3281541923076923        0        
C1        C        0.0625        0.351852        0.3281541923076923        0        
C2        C        0.09375        0.407408        0.3281541923076923        0        
C3        C        0.0625        0.42592500000000005        0.3281541923076923        0        
C4        C        0.09375        0.37037        0.3281541923076923        0        
C1        C        0.0625        0.46296300000000007        0.3281541923076923        0        
C2        C        0.09375        0.518519        0.3281541923076923        0        
C3        C        0.0625        0.537037        0.3281541923076923        0        
C4        C        0.09375        0.481481        0.3281541923076923        0        
C1        C        0.0625        0.574075        0.3281541923076923        0        
C2        C        0.09375        0.62963        0.3281541923076923        0        
C3        C        0.0625        0.648148        0.3281541923076923        0        
C4        C        0.09375        0.592592        0.3281541923076923        0        
C1        C        0.125        0.018519        0.3281541923076923        0        
C2        C        0.15625        0.074075        0.3281541923076923        0        
C3        C        0.125        0.092592        0.3281541923076923        0        
C4        C        0.15625        0.037037        0.3281541923076923        0        
C1        C        0.125        0.12963        0.3281541923076923        0        
C2        C        0.15625        0.185185        0.3281541923076923        0        
C3        C        0.125        0.203703        0.3281541923076923        0        
C4        C        0.15625        0.148148        0.3281541923076923        0        
C1        C        0.125        0.24074099999999998        0.3281541923076923        0        
C2        C        0.15625        0.296297        0.3281541923076923        0        
C3        C        0.125        0.314815        0.3281541923076923        0        
C4        C        0.15625        0.259259        0.3281541923076923        0        
C1        C        0.125        0.351852        0.3281541923076923        0        
C2        C        0.15625        0.407408        0.3281541923076923        0        
C3        C        0.125        0.42592500000000005        0.3281541923076923        0        
C4        C        0.15625        0.37037        0.3281541923076923        0        
C1        C        0.125        0.46296300000000007        0.3281541923076923        0        
C2        C        0.15625        0.518519        0.3281541923076923        0        
C3        C        0.125        0.537037        0.3281541923076923        0        
C4        C        0.15625        0.481481        0.3281541923076923        0        
C1        C        0.125        0.574075        0.3281541923076923        0        
C2        C        0.15625        0.62963        0.3281541923076923        0        
C3        C        0.125        0.648148        0.3281541923076923        0        
C4        C        0.15625        0.592592        0.3281541923076923        0        
C1        C        0.1875        0.018519        0.3281541923076923        0        
C2        C        0.21875        0.074075        0.3281541923076923        0        
C3        C        0.1875        0.092592        0.3281541923076923        0        
C4        C        0.21875        0.037037        0.3281541923076923        0        
C1        C        0.1875        0.12963        0.3281541923076923        0        
C2        C        0.21875        0.185185        0.3281541923076923        0        
C3        C        0.1875        0.203703        0.3281541923076923        0        
C4        C        0.21875        0.148148        0.3281541923076923        0        
C1        C        0.1875        0.24074099999999998        0.3281541923076923        0        
C2        C        0.21875        0.296297        0.3281541923076923        0        
C3        C        0.1875        0.314815        0.3281541923076923        0        
C4        C        0.21875        0.259259        0.3281541923076923        0        
C1        C        0.1875        0.351852        0.3281541923076923        0        
C2        C        0.21875        0.407408        0.3281541923076923        0        
C3        C        0.1875        0.42592500000000005        0.3281541923076923        0        
C4        C        0.21875        0.37037        0.3281541923076923        0        
C1        C        0.1875        0.46296300000000007        0.3281541923076923        0        
C2        C        0.21875        0.518519        0.3281541923076923        0        
C3        C        0.1875        0.537037        0.3281541923076923        0        
C4        C        0.21875        0.481481        0.3281541923076923        0        
C1        C        0.1875        0.574075        0.3281541923076923        0        
C2        C        0.21875        0.62963        0.3281541923076923        0        
C3        C        0.1875        0.648148        0.3281541923076923        0        
C4        C        0.21875        0.592592        0.3281541923076923        0        
C1        C        0.25        0.018519        0.3281541923076923        0        
C2        C        0.28125        0.074075        0.3281541923076923        0        
C3        C        0.25        0.092592        0.3281541923076923        0        
C4        C        0.28125        0.037037        0.3281541923076923        0        
C1        C        0.25        0.12963        0.3281541923076923        0        
C2        C        0.28125        0.185185        0.3281541923076923        0        
C3        C        0.25        0.203703        0.3281541923076923        0        
C4        C        0.28125        0.148148        0.3281541923076923        0        
C1        C        0.25        0.24074099999999998        0.3281541923076923        0        
C2        C        0.28125        0.296297        0.3281541923076923        0        
C3        C        0.25        0.314815        0.3281541923076923        0        
C4        C        0.28125        0.259259        0.3281541923076923        0        
C1        C        0.25        0.351852        0.3281541923076923        0        
C2        C        0.28125        0.407408        0.3281541923076923        0        
C3        C        0.25        0.42592500000000005        0.3281541923076923        0        
C4        C        0.28125        0.37037        0.3281541923076923        0        
C1        C        0.25        0.46296300000000007        0.3281541923076923        0        
C2        C        0.28125        0.518519        0.3281541923076923        0        
C3        C        0.25        0.537037        0.3281541923076923        0        
C4        C        0.28125        0.481481        0.3281541923076923        0        
C1        C        0.25        0.574075        0.3281541923076923        0        
C2        C        0.28125        0.62963        0.3281541923076923        0        
C3        C        0.25        0.648148        0.3281541923076923        0        
C4        C        0.28125        0.592592        0.3281541923076923        0        
C1        C        0.3125        0.018519        0.3281541923076923        0        
C2        C        0.34375        0.074075        0.3281541923076923        0        
C3        C        0.3125        0.092592        0.3281541923076923        0        
C4        C        0.34375        0.037037        0.3281541923076923        0        
C1        C        0.3125        0.12963        0.3281541923076923        0        
C2        C        0.34375        0.185185        0.3281541923076923        0        
C3        C        0.3125        0.203703        0.3281541923076923        0        
C4        C        0.34375        0.148148        0.3281541923076923        0        
C1        C        0.3125        0.24074099999999998        0.3281541923076923        0        
C2        C        0.34375        0.296297        0.3281541923076923        0        
C3        C        0.3125        0.314815        0.3281541923076923        0        
C4        C        0.34375        0.259259        0.3281541923076923        0        
C1        C        0.3125        0.351852        0.3281541923076923        0        
C2        C        0.34375        0.407408        0.3281541923076923        0        
C3        C        0.3125        0.42592500000000005        0.3281541923076923        0        
C4        C        0.34375        0.37037        0.3281541923076923        0        
C1        C        0.3125        0.46296300000000007        0.3281541923076923        0        
C2        C        0.34375        0.518519        0.3281541923076923        0        
C3        C        0.3125        0.537037        0.3281541923076923        0        
C4        C        0.34375        0.481481        0.3281541923076923        0        
C1        C        0.3125        0.574075        0.3281541923076923        0        
C2        C        0.34375        0.62963        0.3281541923076923        0        
C3        C        0.3125        0.648148        0.3281541923076923        0        
C4        C        0.34375        0.592592        0.3281541923076923        0        
C1        C        0.375        0.018519        0.3281541923076923        0        
C2        C        0.40625        0.074075        0.3281541923076923        0        
C3        C        0.375        0.092592        0.3281541923076923        0        
C4        C        0.40625        0.037037        0.3281541923076923        0        
C1        C        0.375        0.12963        0.3281541923076923        0        
C2        C        0.40625        0.185185        0.3281541923076923        0        
C3        C        0.375        0.203703        0.3281541923076923        0        
C4        C        0.40625        0.148148        0.3281541923076923        0        
C1        C        0.375        0.24074099999999998        0.3281541923076923        0        
C2        C        0.40625        0.296297        0.3281541923076923        0        
C3        C        0.375        0.314815        0.3281541923076923        0        
C4        C        0.40625        0.259259        0.3281541923076923        0        
C1        C        0.375        0.351852        0.3281541923076923        0        
C2        C        0.40625        0.407408        0.3281541923076923        0        
C3        C        0.375        0.42592500000000005        0.3281541923076923        0        
C4        C        0.40625        0.37037        0.3281541923076923        0        
C1        C        0.375        0.46296300000000007        0.3281541923076923        0        
C2        C        0.40625        0.518519        0.3281541923076923        0        
C3        C        0.375        0.537037        0.3281541923076923        0        
C4        C        0.40625        0.481481        0.3281541923076923        0        
C1        C        0.375        0.574075        0.3281541923076923        0        
C2        C        0.40625        0.62963        0.3281541923076923        0        
C3        C        0.375        0.648148        0.3281541923076923        0        
C4        C        0.40625        0.592592        0.3281541923076923        0        
C1        C        0.4375        0.018519        0.3281541923076923        0        
C2        C        0.46875        0.074075        0.3281541923076923        0        
C3        C        0.4375        0.092592        0.3281541923076923        0        
C4        C        0.46875        0.037037        0.3281541923076923        0        
C1        C        0.4375        0.12963        0.3281541923076923        0        
C2        C        0.46875        0.185185        0.3281541923076923        0        
C3        C        0.4375        0.203703        0.3281541923076923        0        
C4        C        0.46875        0.148148        0.3281541923076923        0        
C1        C        0.4375        0.24074099999999998        0.3281541923076923        0        
C2        C        0.46875        0.296297        0.3281541923076923        0        
C3        C        0.4375        0.314815        0.3281541923076923        0        
C4        C        0.46875        0.259259        0.3281541923076923        0        
C1        C        0.4375        0.351852        0.3281541923076923        0        
C2        C        0.46875        0.407408        0.3281541923076923        0        
C3        C        0.4375        0.42592500000000005        0.3281541923076923        0        
C4        C        0.46875        0.37037        0.3281541923076923        0        
C1        C        0.4375        0.46296300000000007        0.3281541923076923        0        
C2        C        0.46875        0.518519        0.3281541923076923        0        
C3        C        0.4375        0.537037        0.3281541923076923        0        
C4        C        0.46875        0.481481        0.3281541923076923        0        
C1        C        0.4375        0.574075        0.3281541923076923        0        
C2        C        0.46875        0.62963        0.3281541923076923        0        
C3        C        0.4375        0.648148        0.3281541923076923        0        
C4        C        0.46875        0.592592        0.3281541923076923        0        
C1        C        0.5        0.018519        0.3281541923076923        0        
C2        C        0.53125        0.074075        0.3281541923076923        0        
C3        C        0.5        0.092592        0.3281541923076923        0        
C4        C        0.53125        0.037037        0.3281541923076923        0        
C1        C        0.5        0.12963        0.3281541923076923        0        
C2        C        0.53125        0.185185        0.3281541923076923        0        
C3        C        0.5        0.203703        0.3281541923076923        0        
C4        C        0.53125        0.148148        0.3281541923076923        0        
C1        C        0.5        0.24074099999999998        0.3281541923076923        0        
C2        C        0.53125        0.296297        0.3281541923076923        0        
C3        C        0.5        0.314815        0.3281541923076923        0        
C4        C        0.53125        0.259259        0.3281541923076923        0        
C1        C        0.5        0.351852        0.3281541923076923        0        
C2        C        0.53125        0.407408        0.3281541923076923        0        
C3        C        0.5        0.42592500000000005        0.3281541923076923        0        
C4        C        0.53125        0.37037        0.3281541923076923        0        
C1        C        0.5        0.46296300000000007        0.3281541923076923        0        
C2        C        0.53125        0.518519        0.3281541923076923        0        
C3        C        0.5        0.537037        0.3281541923076923        0        
C4        C        0.53125        0.481481        0.3281541923076923        0        
C1        C        0.5        0.574075        0.3281541923076923        0        
C2        C        0.53125        0.62963        0.3281541923076923        0        
C3        C        0.5        0.648148        0.3281541923076923        0        
C4        C        0.53125        0.592592        0.3281541923076923        0        
C1        C        0.5625        0.018519        0.3281541923076923        0        
C2        C        0.59375        0.074075        0.3281541923076923        0        
C3        C        0.5625        0.092592        0.3281541923076923        0        
C4        C        0.59375        0.037037        0.3281541923076923        0        
C1        C        0.5625        0.12963        0.3281541923076923        0        
C2        C        0.59375        0.185185        0.3281541923076923        0        
C3        C        0.5625        0.203703        0.3281541923076923        0        
C4        C        0.59375        0.148148        0.3281541923076923        0        
C1        C        0.5625        0.24074099999999998        0.3281541923076923        0        
C2        C        0.59375        0.296297        0.3281541923076923        0        
C3        C        0.5625        0.314815        0.3281541923076923        0        
C4        C        0.59375        0.259259        0.3281541923076923        0        
C1        C        0.5625        0.351852        0.3281541923076923        0        
C2        C        0.59375        0.407408        0.3281541923076923        0        
C3        C        0.5625        0.42592500000000005        0.3281541923076923        0        
C4        C        0.59375        0.37037        0.3281541923076923        0        
C1        C        0.5625        0.46296300000000007        0.3281541923076923        0        
C2        C        0.59375        0.518519        0.3281541923076923        0        
C3        C        0.5625        0.537037        0.3281541923076923        0        
C4        C        0.59375        0.481481        0.3281541923076923        0        
C1        C        0.5625        0.574075        0.3281541923076923        0        
C2        C        0.59375        0.62963        0.3281541923076923        0        
C3        C        0.5625        0.648148        0.3281541923076923        0        
C4        C        0.59375        0.592592        0.3281541923076923        0        
C1        C        0.625        0.018519        0.3281541923076923        0        
C2        C        0.65625        0.074075        0.3281541923076923        0        
C3        C        0.625        0.092592        0.3281541923076923        0        
C4        C        0.65625        0.037037        0.3281541923076923        0        
C1        C        0.625        0.12963        0.3281541923076923        0        
C2        C        0.65625        0.185185        0.3281541923076923        0        
C3        C        0.625        0.203703        0.3281541923076923        0        
C4        C        0.65625        0.148148        0.3281541923076923        0        
C1        C        0.625        0.24074099999999998        0.3281541923076923        0        
C2        C        0.65625        0.296297        0.3281541923076923        0        
C3        C        0.625        0.314815        0.3281541923076923        0        
C4        C        0.65625        0.259259        0.3281541923076923        0        
C1        C        0.625        0.351852        0.3281541923076923        0        
C2        C        0.65625        0.407408        0.3281541923076923        0        
C3        C        0.625        0.42592500000000005        0.3281541923076923        0        
C4        C        0.65625        0.37037        0.3281541923076923        0        
C1        C        0.625        0.46296300000000007        0.3281541923076923        0        
C2        C        0.65625        0.518519        0.3281541923076923        0        
C3        C        0.625        0.537037        0.3281541923076923        0        
C4        C        0.65625        0.481481        0.3281541923076923        0        
C1        C        0.625        0.574075        0.3281541923076923        0        
C2        C        0.65625        0.62963        0.3281541923076923        0        
C3        C        0.625        0.648148        0.3281541923076923        0        
C4        C        0.65625        0.592592        0.3281541923076923        0        
C1        C        0.6875        0.018519        0.3281541923076923        0        
C2        C        0.71875        0.074075        0.3281541923076923        0        
C3        C        0.6875        0.092592        0.3281541923076923        0        
C4        C        0.71875        0.037037        0.3281541923076923        0        
C1        C        0.6875        0.12963        0.3281541923076923        0        
C2        C        0.71875        0.185185        0.3281541923076923        0        
C3        C        0.6875        0.203703        0.3281541923076923        0        
C4        C        0.71875        0.148148        0.3281541923076923        0        
C1        C        0.6875        0.24074099999999998        0.3281541923076923        0        
C2        C        0.71875        0.296297        0.3281541923076923        0        
C3        C        0.6875        0.314815        0.3281541923076923        0        
C4        C        0.71875        0.259259        0.3281541923076923        0        
C1        C        0.6875        0.351852        0.3281541923076923        0        
C2        C        0.71875        0.407408        0.3281541923076923        0        
C3        C        0.6875        0.42592500000000005        0.3281541923076923        0        
C4        C        0.71875        0.37037        0.3281541923076923        0        
C1        C        0.6875        0.46296300000000007        0.3281541923076923        0        
C2        C        0.71875        0.518519        0.3281541923076923        0        
C3        C        0.6875        0.537037        0.3281541923076923        0        
C4        C        0.71875        0.481481        0.3281541923076923        0        
C1        C        0.6875        0.574075        0.3281541923076923        0        
C2        C        0.71875        0.62963        0.3281541923076923        0        
C3        C        0.6875        0.648148        0.3281541923076923        0        
C4        C        0.71875        0.592592        0.3281541923076923        0        
C1        C        0.75        0.018519        0.3281541923076923        0        
C2        C        0.78125        0.074075        0.3281541923076923        0        
C3        C        0.75        0.092592        0.3281541923076923        0        
C4        C        0.78125        0.037037        0.3281541923076923        0        
C1        C        0.75        0.12963        0.3281541923076923        0        
C2        C        0.78125        0.185185        0.3281541923076923        0        
C3        C        0.75        0.203703        0.3281541923076923        0        
C4        C        0.78125        0.148148        0.3281541923076923        0        
C1        C        0.75        0.24074099999999998        0.3281541923076923        0        
C2        C        0.78125        0.296297        0.3281541923076923        0        
C3        C        0.75        0.314815        0.3281541923076923        0        
C4        C        0.78125        0.259259        0.3281541923076923        0        
C1        C        0.75        0.351852        0.3281541923076923        0        
C2        C        0.78125        0.407408        0.3281541923076923        0        
C3        C        0.75        0.42592500000000005        0.3281541923076923        0        
C4        C        0.78125        0.37037        0.3281541923076923        0        
C1        C        0.75        0.46296300000000007        0.3281541923076923        0        
C2        C        0.78125        0.518519        0.3281541923076923        0        
C3        C        0.75        0.537037        0.3281541923076923        0        
C4        C        0.78125        0.481481        0.3281541923076923        0        
C1        C        0.75        0.574075        0.3281541923076923        0        
C2        C        0.78125        0.62963        0.3281541923076923        0        
C3        C        0.75        0.648148        0.3281541923076923        0        
C4        C        0.78125        0.592592        0.3281541923076923        0        
C1        C        0.8125        0.018519        0.3281541923076923        0        
C2        C        0.84375        0.074075        0.3281541923076923        0        
C3        C        0.8125        0.092592        0.3281541923076923        0        
C4        C        0.84375        0.037037        0.3281541923076923        0        
C1        C        0.8125        0.12963        0.3281541923076923        0        
C2        C        0.84375        0.185185        0.3281541923076923        0        
C3        C        0.8125        0.203703        0.3281541923076923        0        
C4        C        0.84375        0.148148        0.3281541923076923        0        
C1        C        0.8125        0.24074099999999998        0.3281541923076923        0        
C2        C        0.84375        0.296297        0.3281541923076923        0        
C3        C        0.8125        0.314815        0.3281541923076923        0        
C4        C        0.84375        0.259259        0.3281541923076923        0        
C1        C        0.8125        0.351852        0.3281541923076923        0        
C2        C        0.84375        0.407408        0.3281541923076923        0        
C3        C        0.8125        0.42592500000000005        0.3281541923076923        0        
C4        C        0.84375        0.37037        0.3281541923076923        0        
C1        C        0.8125        0.46296300000000007        0.3281541923076923        0        
C2        C        0.84375        0.518519        0.3281541923076923        0        
C3        C        0.8125        0.537037        0.3281541923076923        0        
C4        C        0.84375        0.481481        0.3281541923076923        0        
C1        C        0.8125        0.574075        0.3281541923076923        0        
C2        C        0.84375        0.62963        0.3281541923076923        0        
C3        C        0.8125        0.648148        0.3281541923076923        0        
C4        C        0.84375        0.592592        0.3281541923076923        0        
C1        C        0.875        0.018519        0.3281541923076923        0        
C2        C        0.9062500000000001        0.074075        0.3281541923076923        0        
C3        C        0.875        0.092592        0.3281541923076923        0        
C4        C        0.9062500000000001        0.037037        0.3281541923076923        0        
C1        C        0.875        0.12963        0.3281541923076923        0        
C2        C        0.9062500000000001        0.185185        0.3281541923076923        0        
C3        C        0.875        0.203703        0.3281541923076923        0        
C4        C        0.9062500000000001        0.148148        0.3281541923076923        0        
C1        C        0.875        0.24074099999999998        0.3281541923076923        0        
C2        C        0.9062500000000001        0.296297        0.3281541923076923        0        
C3        C        0.875        0.314815        0.3281541923076923        0        
C4        C        0.9062500000000001        0.259259        0.3281541923076923        0        
C1        C        0.875        0.351852        0.3281541923076923        0        
C2        C        0.9062500000000001        0.407408        0.3281541923076923        0        
C3        C        0.875        0.42592500000000005        0.3281541923076923        0        
C4        C        0.9062500000000001        0.37037        0.3281541923076923        0        
C1        C        0.875        0.46296300000000007        0.3281541923076923        0        
C2        C        0.9062500000000001        0.518519        0.3281541923076923        0        
C3        C        0.875        0.537037        0.3281541923076923        0        
C4        C        0.9062500000000001        0.481481        0.3281541923076923        0        
C1        C        0.875        0.574075        0.3281541923076923        0        
C2        C        0.9062500000000001        0.62963        0.3281541923076923        0        
C3        C        0.875        0.648148        0.3281541923076923        0        
C4        C        0.9062500000000001        0.592592        0.3281541923076923        0        
C1        C        0.9375        0.018519        0.3281541923076923        0        
C2        C        0.9687500000000001        0.074075        0.3281541923076923        0        
C3        C        0.9375        0.092592        0.3281541923076923        0        
C4        C        0.9687500000000001        0.037037        0.3281541923076923        0        
C1        C        0.9375        0.12963        0.3281541923076923        0        
C2        C        0.9687500000000001        0.185185        0.3281541923076923        0        
C3        C        0.9375        0.203703        0.3281541923076923        0        
C4        C        0.9687500000000001        0.148148        0.3281541923076923        0        
C1        C        0.9375        0.24074099999999998        0.3281541923076923        0        
C2        C        0.9687500000000001        0.296297        0.3281541923076923        0        
C3        C        0.9375        0.314815        0.3281541923076923        0        
C4        C        0.9687500000000001        0.259259        0.3281541923076923        0        
C1        C        0.9375        0.351852        0.3281541923076923        0        
C2        C        0.9687500000000001        0.407408        0.3281541923076923        0        
C3        C        0.9375        0.42592500000000005        0.3281541923076923        0        
C4        C        0.9687500000000001        0.37037        0.3281541923076923        0        
C1        C        0.9375        0.46296300000000007        0.3281541923076923        0        
C2        C        0.9687500000000001        0.518519        0.3281541923076923        0        
C3        C        0.9375        0.537037        0.3281541923076923        0        
C4        C        0.9687500000000001        0.481481        0.3281541923076923        0        
C1        C        0.9375        0.574075        0.3281541923076923        0        
C2        C        0.9687500000000001        0.62963        0.3281541923076923        0        
C3        C        0.9375        0.648148        0.3281541923076923        0        
C4        C        0.9687500000000001        0.592592        0.3281541923076923        0        
C1        C        0.0        0.685186        0.3281541923076923        0        
C1        C        0.0625        0.685186        0.3281541923076923        0        
C1        C        0.125        0.685186        0.3281541923076923        0        
C1        C        0.1875        0.685186        0.3281541923076923        0        
C1        C        0.25        0.685186        0.3281541923076923        0        
C1        C        0.3125        0.685186        0.3281541923076923        0        
C1        C        0.375        0.685186        0.3281541923076923        0        
C1        C        0.4375        0.685186        0.3281541923076923        0        
C1        C        0.5        0.685186        0.3281541923076923        0        
C1        C        0.5625        0.685186        0.3281541923076923        0        
C1        C        0.625        0.685186        0.3281541923076923        0        
C1        C        0.6875        0.685186        0.3281541923076923        0        
C1        C        0.75        0.685186        0.3281541923076923        0        
C1        C        0.8125        0.685186        0.3281541923076923        0        
C1        C        0.875        0.685186        0.3281541923076923        0        
C1        C        0.9375        0.685186        0.3281541923076923        0        
C2        C        0.03125        0.740741        0.3281541923076923        0        
C2        C        0.09375        0.740741        0.3281541923076923        0        
C2        C        0.15625        0.740741        0.3281541923076923        0        
C2        C        0.21875        0.740741        0.3281541923076923        0        
C2        C        0.28125        0.740741        0.3281541923076923        0        
C2        C        0.34375        0.740741        0.3281541923076923        0        
C2        C        0.40625        0.740741        0.3281541923076923        0        
C2        C        0.46875        0.740741        0.3281541923076923        0        
C2        C        0.53125        0.740741        0.3281541923076923        0        
C2        C        0.59375        0.740741        0.3281541923076923        0        
C2        C        0.65625        0.740741        0.3281541923076923        0        
C2        C        0.71875        0.740741        0.3281541923076923        0        
C2        C        0.78125        0.740741        0.3281541923076923        0        
C2        C        0.84375        0.740741        0.3281541923076923        0        
C2        C        0.9062500000000001        0.740741        0.3281541923076923        0        
C2        C        0.9687500000000001        0.740741        0.3281541923076923        0        
C3        C        0.0        0.759259        0.3281541923076923        0        
C3        C        0.0625        0.759259        0.3281541923076923        0        
C3        C        0.125        0.759259        0.3281541923076923        0        
C3        C        0.1875        0.759259        0.3281541923076923        0        
C3        C        0.25        0.759259        0.3281541923076923        0        
C3        C        0.3125        0.759259        0.3281541923076923        0        
C3        C        0.375        0.759259        0.3281541923076923        0        
C3        C        0.4375        0.759259        0.3281541923076923        0        
C3        C        0.5        0.759259        0.3281541923076923        0        
C3        C        0.5625        0.759259        0.3281541923076923        0        
C3        C        0.625        0.759259        0.3281541923076923        0        
C3        C        0.6875        0.759259        0.3281541923076923        0        
C3        C        0.75        0.759259        0.3281541923076923        0        
C3        C        0.8125        0.759259        0.3281541923076923        0        
C3        C        0.875        0.759259        0.3281541923076923        0        
C3        C        0.9375        0.759259        0.3281541923076923        0        
C4        C        0.03125        0.703703        0.3281541923076923        0        
C4        C        0.09375        0.703703        0.3281541923076923        0        
C4        C        0.15625        0.703703        0.3281541923076923        0        
C4        C        0.21875        0.703703        0.3281541923076923        0        
C4        C        0.28125        0.703703        0.3281541923076923        0        
C4        C        0.34375        0.703703        0.3281541923076923        0        
C4        C        0.40625        0.703703        0.3281541923076923        0        
C4        C        0.46875        0.703703        0.3281541923076923        0        
C4        C        0.53125        0.703703        0.3281541923076923        0        
C4        C        0.59375        0.703703        0.3281541923076923        0        
C4        C        0.65625        0.703703        0.3281541923076923        0        
C4        C        0.71875        0.703703        0.3281541923076923        0        
C4        C        0.78125        0.703703        0.3281541923076923        0        
C4        C        0.84375        0.703703        0.3281541923076923        0        
C4        C        0.9062500000000001        0.703703        0.3281541923076923        0        
C4        C        0.9687500000000001        0.703703        0.3281541923076923        0        
C1        C        0.0        0.796297        0.3281541923076923        0        
C1        C        0.0625        0.796297        0.3281541923076923        0        
C1        C        0.125        0.796297        0.3281541923076923        0        
C1        C        0.1875        0.796297        0.3281541923076923        0        
C1        C        0.25        0.796297        0.3281541923076923        0        
C1        C        0.3125        0.796297        0.3281541923076923        0        
C1        C        0.375        0.796297        0.3281541923076923        0        
C1        C        0.4375        0.796297        0.3281541923076923        0        
C1        C        0.5        0.796297        0.3281541923076923        0        
C1        C        0.5625        0.796297        0.3281541923076923        0        
C1        C        0.625        0.796297        0.3281541923076923        0        
C1        C        0.6875        0.796297        0.3281541923076923        0        
C1        C        0.75        0.796297        0.3281541923076923        0        
C1        C        0.8125        0.796297        0.3281541923076923        0        
C1        C        0.875        0.796297        0.3281541923076923        0        
C1        C        0.9375        0.796297        0.3281541923076923        0        
C2        C        0.03125        0.851852        0.3281541923076923        0        
C2        C        0.09375        0.851852        0.3281541923076923        0        
C2        C        0.15625        0.851852        0.3281541923076923        0        
C2        C        0.21875        0.851852        0.3281541923076923        0        
C2        C        0.28125        0.851852        0.3281541923076923        0        
C2        C        0.34375        0.851852        0.3281541923076923        0        
C2        C        0.40625        0.851852        0.3281541923076923        0        
C2        C        0.46875        0.851852        0.3281541923076923        0        
C2        C        0.53125        0.851852        0.3281541923076923        0        
C2        C        0.59375        0.851852        0.3281541923076923        0        
C2        C        0.65625        0.851852        0.3281541923076923        0        
C2        C        0.71875        0.851852        0.3281541923076923        0        
C2        C        0.78125        0.851852        0.3281541923076923        0        
C2        C        0.84375        0.851852        0.3281541923076923        0        
C2        C        0.9062500000000001        0.851852        0.3281541923076923        0        
C2        C        0.9687500000000001        0.851852        0.3281541923076923        0        
C3        C        0.0        0.87037        0.3281541923076923        0        
C3        C        0.0625        0.87037        0.3281541923076923        0        
C3        C        0.125        0.87037        0.3281541923076923        0        
C3        C        0.1875        0.87037        0.3281541923076923        0        
C3        C        0.25        0.87037        0.3281541923076923        0        
C3        C        0.3125        0.87037        0.3281541923076923        0        
C3        C        0.375        0.87037        0.3281541923076923        0        
C3        C        0.4375        0.87037        0.3281541923076923        0        
C3        C        0.5        0.87037        0.3281541923076923        0        
C3        C        0.5625        0.87037        0.3281541923076923        0        
C3        C        0.625        0.87037        0.3281541923076923        0        
C3        C        0.6875        0.87037        0.3281541923076923        0        
C3        C        0.75        0.87037        0.3281541923076923        0        
C3        C        0.8125        0.87037        0.3281541923076923        0        
C3        C        0.875        0.87037        0.3281541923076923        0        
C3        C        0.9375        0.87037        0.3281541923076923        0        
C4        C        0.03125        0.814814        0.3281541923076923        0        
C4        C        0.09375        0.814814        0.3281541923076923        0        
C4        C        0.15625        0.814814        0.3281541923076923        0        
C4        C        0.21875        0.814814        0.3281541923076923        0        
C4        C        0.28125        0.814814        0.3281541923076923        0        
C4        C        0.34375        0.814814        0.3281541923076923        0        
C4        C        0.40625        0.814814        0.3281541923076923        0        
C4        C        0.46875        0.814814        0.3281541923076923        0        
C4        C        0.53125        0.814814        0.3281541923076923        0        
C4        C        0.59375        0.814814        0.3281541923076923        0        
C4        C        0.65625        0.814814        0.3281541923076923        0        
C4        C        0.71875        0.814814        0.3281541923076923        0        
C4        C        0.78125        0.814814        0.3281541923076923        0        
C4        C        0.84375        0.814814        0.3281541923076923        0        
C4        C        0.9062500000000001        0.814814        0.3281541923076923        0        
C4        C        0.9687500000000001        0.814814        0.3281541923076923        0        
C1        C        0.0        0.907408        0.3281541923076923        0        
C1        C        0.0625        0.907408        0.3281541923076923        0        
C1        C        0.125        0.907408        0.3281541923076923        0        
C1        C        0.1875        0.907408        0.3281541923076923        0        
C1        C        0.25        0.907408        0.3281541923076923        0        
C1        C        0.3125        0.907408        0.3281541923076923        0        
C1        C        0.375        0.907408        0.3281541923076923        0        
C1        C        0.4375        0.907408        0.3281541923076923        0        
C1        C        0.5        0.907408        0.3281541923076923        0        
C1        C        0.5625        0.907408        0.3281541923076923        0        
C1        C        0.625        0.907408        0.3281541923076923        0        
C1        C        0.6875        0.907408        0.3281541923076923        0        
C1        C        0.75        0.907408        0.3281541923076923        0        
C1        C        0.8125        0.907408        0.3281541923076923        0        
C1        C        0.875        0.907408        0.3281541923076923        0        
C1        C        0.9375        0.907408        0.3281541923076923        0        
C2        C        0.03125        0.962963        0.3281541923076923        0        
C2        C        0.09375        0.962963        0.3281541923076923        0        
C2        C        0.15625        0.962963        0.3281541923076923        0        
C2        C        0.21875        0.962963        0.3281541923076923        0        
C2        C        0.28125        0.962963        0.3281541923076923        0        
C2        C        0.34375        0.962963        0.3281541923076923        0        
C2        C        0.40625        0.962963        0.3281541923076923        0        
C2        C        0.46875        0.962963        0.3281541923076923        0        
C2        C        0.53125        0.962963        0.3281541923076923        0        
C2        C        0.59375        0.962963        0.3281541923076923        0        
C2        C        0.65625        0.962963        0.3281541923076923        0        
C2        C        0.71875        0.962963        0.3281541923076923        0        
C2        C        0.78125        0.962963        0.3281541923076923        0        
C2        C        0.84375        0.962963        0.3281541923076923        0        
C2        C        0.9062500000000001        0.962963        0.3281541923076923        0        
C2        C        0.9687500000000001        0.962963        0.3281541923076923        0        
C3        C        0.0        0.9814809999999999        0.3281541923076923        0        
C3        C        0.0625        0.9814809999999999        0.3281541923076923        0        
C3        C        0.125        0.9814809999999999        0.3281541923076923        0        
C3        C        0.1875        0.9814809999999999        0.3281541923076923        0        
C3        C        0.25        0.9814809999999999        0.3281541923076923        0        
C3        C        0.3125        0.9814809999999999        0.3281541923076923        0        
C3        C        0.375        0.9814809999999999        0.3281541923076923        0        
C3        C        0.4375        0.9814809999999999        0.3281541923076923        0        
C3        C        0.5        0.9814809999999999        0.3281541923076923        0        
C3        C        0.5625        0.9814809999999999        0.3281541923076923        0        
C3        C        0.625        0.9814809999999999        0.3281541923076923        0        
C3        C        0.6875        0.9814809999999999        0.3281541923076923        0        
C3        C        0.75        0.9814809999999999        0.3281541923076923        0        
C3        C        0.8125        0.9814809999999999        0.3281541923076923        0        
C3        C        0.875        0.9814809999999999        0.3281541923076923        0        
C3        C        0.9375        0.9814809999999999        0.3281541923076923        0        
C4        C        0.03125        0.925925        0.3281541923076923        0        
C4        C        0.09375        0.925925        0.3281541923076923        0        
C4        C        0.15625        0.925925        0.3281541923076923        0        
C4        C        0.21875        0.925925        0.3281541923076923        0        
C4        C        0.28125        0.925925        0.3281541923076923        0        
C4        C        0.34375        0.925925        0.3281541923076923        0        
C4        C        0.40625        0.925925        0.3281541923076923        0        
C4        C        0.46875        0.925925        0.3281541923076923        0        
C4        C        0.53125        0.925925        0.3281541923076923        0        
C4        C        0.59375        0.925925        0.3281541923076923        0        
C4        C        0.65625        0.925925        0.3281541923076923        0        
C4        C        0.71875        0.925925        0.3281541923076923        0        
C4        C        0.78125        0.925925        0.3281541923076923        0        
C4        C        0.84375        0.925925        0.3281541923076923        0        
C4        C        0.9062500000000001        0.925925        0.3281541923076923        0        
C4        C        0.9687500000000001        0.925925        0.3281541923076923        0        
C_FG        C        0.0        0.018519        0.5428971923076924        0.2        
C2        C        0.03125        0.074075        0.5428971923076924        0        
C3        C        0.0        0.092592        0.5428971923076924        0        
C4        C        0.03125        0.037037        0.5428971923076924        0        
C_FG        C        0.0        0.12963        0.5428971923076924        0.2        
C2        C        0.03125        0.185185        0.5428971923076924        0        
C3        C        0.0        0.203703        0.5428971923076924        0        
C4        C        0.03125        0.148148        0.5428971923076924        0        
C_FG        C        0.0        0.24074099999999998        0.5428971923076924        0.2        
C2        C        0.03125        0.296297        0.5428971923076924        0        
C3        C        0.0        0.314815        0.5428971923076924        0        
C4        C        0.03125        0.259259        0.5428971923076924        0        
C_FG        C        0.0        0.351852        0.5428971923076924        0.2        
C2        C        0.03125        0.407408        0.5428971923076924        0        
C3        C        0.0        0.42592500000000005        0.5428971923076924        0        
C4        C        0.03125        0.37037        0.5428971923076924        0        
C_FG        C        0.0        0.46296300000000007        0.5428971923076924        0.2        
C2        C        0.03125        0.518519        0.5428971923076924        0        
C3        C        0.0        0.537037        0.5428971923076924        0        
C4        C        0.03125        0.481481        0.5428971923076924        0        
C_FG        C        0.0        0.574075        0.5428971923076924        0.2        
C2        C        0.03125        0.62963        0.5428971923076924        0        
C3        C        0.0        0.648148        0.5428971923076924        0        
C4        C        0.03125        0.592592        0.5428971923076924        0        
C1        C        0.0625        0.018519        0.5428971923076924        0        
C2        C        0.09375        0.074075        0.5428971923076924        0        
C3        C        0.0625        0.092592        0.5428971923076924        0        
C4        C        0.09375        0.037037        0.5428971923076924        0        
C1        C        0.0625        0.12963        0.5428971923076924        0        
C2        C        0.09375        0.185185        0.5428971923076924        0        
C3        C        0.0625        0.203703        0.5428971923076924        0        
C4        C        0.09375        0.148148        0.5428971923076924        0        
C1        C        0.0625        0.24074099999999998        0.5428971923076924        0        
C2        C        0.09375        0.296297        0.5428971923076924        0        
C3        C        0.0625        0.314815        0.5428971923076924        0        
C4        C        0.09375        0.259259        0.5428971923076924        0        
C1        C        0.0625        0.351852        0.5428971923076924        0        
C2        C        0.09375        0.407408        0.5428971923076924        0        
C3        C        0.0625        0.42592500000000005        0.5428971923076924        0        
C4        C        0.09375        0.37037        0.5428971923076924        0        
C1        C        0.0625        0.46296300000000007        0.5428971923076924        0        
C2        C        0.09375        0.518519        0.5428971923076924        0        
C3        C        0.0625        0.537037        0.5428971923076924        0        
C4        C        0.09375        0.481481        0.5428971923076924        0        
C1        C        0.0625        0.574075        0.5428971923076924        0        
C2        C        0.09375        0.62963        0.5428971923076924        0        
C3        C        0.0625        0.648148        0.5428971923076924        0        
C4        C        0.09375        0.592592        0.5428971923076924        0        
C_FG        C        0.125        0.018519        0.5428971923076924        0.2        
C2        C        0.15625        0.074075        0.5428971923076924        0        
C3        C        0.125        0.092592        0.5428971923076924        0        
C4        C        0.15625        0.037037        0.5428971923076924        0        
C_FG        C        0.125        0.12963        0.5428971923076924        0.2        
C2        C        0.15625        0.185185        0.5428971923076924        0        
C3        C        0.125        0.203703        0.5428971923076924        0        
C4        C        0.15625        0.148148        0.5428971923076924        0        
C_FG        C        0.125        0.24074099999999998        0.5428971923076924        0.2        
C2        C        0.15625        0.296297        0.5428971923076924        0        
C3        C        0.125        0.314815        0.5428971923076924        0        
C4        C        0.15625        0.259259        0.5428971923076924        0        
C_FG        C        0.125        0.351852        0.5428971923076924        0.2        
C2        C        0.15625        0.407408        0.5428971923076924        0        
C3        C        0.125        0.42592500000000005        0.5428971923076924        0        
C4        C        0.15625        0.37037        0.5428971923076924        0        
C_FG        C        0.125        0.46296300000000007        0.5428971923076924        0.2        
C2        C        0.15625        0.518519        0.5428971923076924        0        
C3        C        0.125        0.537037        0.5428971923076924        0        
C4        C        0.15625        0.481481        0.5428971923076924        0        
C_FG        C        0.125        0.574075        0.5428971923076924        0.2        
C2        C        0.15625        0.62963        0.5428971923076924        0        
C3        C        0.125        0.648148        0.5428971923076924        0        
C4        C        0.15625        0.592592        0.5428971923076924        0        
C1        C        0.1875        0.018519        0.5428971923076924        0        
C2        C        0.21875        0.074075        0.5428971923076924        0        
C3        C        0.1875        0.092592        0.5428971923076924        0        
C4        C        0.21875        0.037037        0.5428971923076924        0        
C1        C        0.1875        0.12963        0.5428971923076924        0        
C2        C        0.21875        0.185185        0.5428971923076924        0        
C3        C        0.1875        0.203703        0.5428971923076924        0        
C4        C        0.21875        0.148148        0.5428971923076924        0        
C1        C        0.1875        0.24074099999999998        0.5428971923076924        0        
C2        C        0.21875        0.296297        0.5428971923076924        0        
C3        C        0.1875        0.314815        0.5428971923076924        0        
C4        C        0.21875        0.259259        0.5428971923076924        0        
C1        C        0.1875        0.351852        0.5428971923076924        0        
C2        C        0.21875        0.407408        0.5428971923076924        0        
C3        C        0.1875        0.42592500000000005        0.5428971923076924        0        
C4        C        0.21875        0.37037        0.5428971923076924        0        
C1        C        0.1875        0.46296300000000007        0.5428971923076924        0        
C2        C        0.21875        0.518519        0.5428971923076924        0        
C3        C        0.1875        0.537037        0.5428971923076924        0        
C4        C        0.21875        0.481481        0.5428971923076924        0        
C1        C        0.1875        0.574075        0.5428971923076924        0        
C2        C        0.21875        0.62963        0.5428971923076924        0        
C3        C        0.1875        0.648148        0.5428971923076924        0        
C4        C        0.21875        0.592592        0.5428971923076924        0        
C_FG        C        0.25        0.018519        0.5428971923076924        0.2        
C2        C        0.28125        0.074075        0.5428971923076924        0        
C3        C        0.25        0.092592        0.5428971923076924        0        
C4        C        0.28125        0.037037        0.5428971923076924        0        
C_FG        C        0.25        0.12963        0.5428971923076924        0.2        
C2        C        0.28125        0.185185        0.5428971923076924        0        
C3        C        0.25        0.203703        0.5428971923076924        0        
C4        C        0.28125        0.148148        0.5428971923076924        0        
C_FG        C        0.25        0.24074099999999998        0.5428971923076924        0.2        
C2        C        0.28125        0.296297        0.5428971923076924        0        
C3        C        0.25        0.314815        0.5428971923076924        0        
C4        C        0.28125        0.259259        0.5428971923076924        0        
C_FG        C        0.25        0.351852        0.5428971923076924        0.2        
C2        C        0.28125        0.407408        0.5428971923076924        0        
C3        C        0.25        0.42592500000000005        0.5428971923076924        0        
C4        C        0.28125        0.37037        0.5428971923076924        0        
C_FG        C        0.25        0.46296300000000007        0.5428971923076924        0.2        
C2        C        0.28125        0.518519        0.5428971923076924        0        
C3        C        0.25        0.537037        0.5428971923076924        0        
C4        C        0.28125        0.481481        0.5428971923076924        0        
C_FG        C        0.25        0.574075        0.5428971923076924        0.2        
C2        C        0.28125        0.62963        0.5428971923076924        0        
C3        C        0.25        0.648148        0.5428971923076924        0        
C4        C        0.28125        0.592592        0.5428971923076924        0        
C1        C        0.3125        0.018519        0.5428971923076924        0        
C2        C        0.34375        0.074075        0.5428971923076924        0        
C3        C        0.3125        0.092592        0.5428971923076924        0        
C4        C        0.34375        0.037037        0.5428971923076924        0        
C1        C        0.3125        0.12963        0.5428971923076924        0        
C2        C        0.34375        0.185185        0.5428971923076924        0        
C3        C        0.3125        0.203703        0.5428971923076924        0        
C4        C        0.34375        0.148148        0.5428971923076924        0        
C1        C        0.3125        0.24074099999999998        0.5428971923076924        0        
C2        C        0.34375        0.296297        0.5428971923076924        0        
C3        C        0.3125        0.314815        0.5428971923076924        0        
C4        C        0.34375        0.259259        0.5428971923076924        0        
C1        C        0.3125        0.351852        0.5428971923076924        0        
C2        C        0.34375        0.407408        0.5428971923076924        0        
C3        C        0.3125        0.42592500000000005        0.5428971923076924        0        
C4        C        0.34375        0.37037        0.5428971923076924        0        
C1        C        0.3125        0.46296300000000007        0.5428971923076924        0        
C2        C        0.34375        0.518519        0.5428971923076924        0        
C3        C        0.3125        0.537037        0.5428971923076924        0        
C4        C        0.34375        0.481481        0.5428971923076924        0        
C1        C        0.3125        0.574075        0.5428971923076924        0        
C2        C        0.34375        0.62963        0.5428971923076924        0        
C3        C        0.3125        0.648148        0.5428971923076924        0        
C4        C        0.34375        0.592592        0.5428971923076924        0        
C_FG        C        0.375        0.018519        0.5428971923076924        0.2        
C2        C        0.40625        0.074075        0.5428971923076924        0        
C3        C        0.375        0.092592        0.5428971923076924        0        
C4        C        0.40625        0.037037        0.5428971923076924        0        
C_FG        C        0.375        0.12963        0.5428971923076924        0.2        
C2        C        0.40625        0.185185        0.5428971923076924        0        
C3        C        0.375        0.203703        0.5428971923076924        0        
C4        C        0.40625        0.148148        0.5428971923076924        0        
C_FG        C        0.375        0.24074099999999998        0.5428971923076924        0.2        
C2        C        0.40625        0.296297        0.5428971923076924        0        
C3        C        0.375        0.314815        0.5428971923076924        0        
C4        C        0.40625        0.259259        0.5428971923076924        0        
C_FG        C        0.375        0.351852        0.5428971923076924        0.2        
C2        C        0.40625        0.407408        0.5428971923076924        0        
C3        C        0.375        0.42592500000000005        0.5428971923076924        0        
C4        C        0.40625        0.37037        0.5428971923076924        0        
C_FG        C        0.375        0.46296300000000007        0.5428971923076924        0.2        
C2        C        0.40625        0.518519        0.5428971923076924        0        
C3        C        0.375        0.537037        0.5428971923076924        0        
C4        C        0.40625        0.481481        0.5428971923076924        0        
C_FG        C        0.375        0.574075        0.5428971923076924        0.2        
C2        C        0.40625        0.62963        0.5428971923076924        0        
C3        C        0.375        0.648148        0.5428971923076924        0        
C4        C        0.40625        0.592592        0.5428971923076924        0        
C1        C        0.4375        0.018519        0.5428971923076924        0        
C2        C        0.46875        0.074075        0.5428971923076924        0        
C3        C        0.4375        0.092592        0.5428971923076924        0        
C4        C        0.46875        0.037037        0.5428971923076924        0        
C1        C        0.4375        0.12963        0.5428971923076924        0        
C2        C        0.46875        0.185185        0.5428971923076924        0        
C3        C        0.4375        0.203703        0.5428971923076924        0        
C4        C        0.46875        0.148148        0.5428971923076924        0        
C1        C        0.4375        0.24074099999999998        0.5428971923076924        0        
C2        C        0.46875        0.296297        0.5428971923076924        0        
C3        C        0.4375        0.314815        0.5428971923076924        0        
C4        C        0.46875        0.259259        0.5428971923076924        0        
C1        C        0.4375        0.351852        0.5428971923076924        0        
C2        C        0.46875        0.407408        0.5428971923076924        0        
C3        C        0.4375        0.42592500000000005        0.5428971923076924        0        
C4        C        0.46875        0.37037        0.5428971923076924        0        
C1        C        0.4375        0.46296300000000007        0.5428971923076924        0        
C2        C        0.46875        0.518519        0.5428971923076924        0        
C3        C        0.4375        0.537037        0.5428971923076924        0        
C4        C        0.46875        0.481481        0.5428971923076924        0        
C1        C        0.4375        0.574075        0.5428971923076924        0        
C2        C        0.46875        0.62963        0.5428971923076924        0        
C3        C        0.4375        0.648148        0.5428971923076924        0        
C4        C        0.46875        0.592592        0.5428971923076924        0        
C_FG        C        0.5        0.018519        0.5428971923076924        0.2        
C2        C        0.53125        0.074075        0.5428971923076924        0        
C3        C        0.5        0.092592        0.5428971923076924        0        
C4        C        0.53125        0.037037        0.5428971923076924        0        
C_FG        C        0.5        0.12963        0.5428971923076924        0.2        
C2        C        0.53125        0.185185        0.5428971923076924        0        
C3        C        0.5        0.203703        0.5428971923076924        0        
C4        C        0.53125        0.148148        0.5428971923076924        0        
C_FG        C        0.5        0.24074099999999998        0.5428971923076924        0.2        
C2        C        0.53125        0.296297        0.5428971923076924        0        
C3        C        0.5        0.314815        0.5428971923076924        0        
C4        C        0.53125        0.259259        0.5428971923076924        0        
C_FG        C        0.5        0.351852        0.5428971923076924        0.2        
C2        C        0.53125        0.407408        0.5428971923076924        0        
C3        C        0.5        0.42592500000000005        0.5428971923076924        0        
C4        C        0.53125        0.37037        0.5428971923076924        0        
C_FG        C        0.5        0.46296300000000007        0.5428971923076924        0.2        
C2        C        0.53125        0.518519        0.5428971923076924        0        
C3        C        0.5        0.537037        0.5428971923076924        0        
C4        C        0.53125        0.481481        0.5428971923076924        0        
C_FG        C        0.5        0.574075        0.5428971923076924        0.2        
C2        C        0.53125        0.62963        0.5428971923076924        0        
C3        C        0.5        0.648148        0.5428971923076924        0        
C4        C        0.53125        0.592592        0.5428971923076924        0        
C1        C        0.5625        0.018519        0.5428971923076924        0        
C2        C        0.59375        0.074075        0.5428971923076924        0        
C3        C        0.5625        0.092592        0.5428971923076924        0        
C4        C        0.59375        0.037037        0.5428971923076924        0        
C1        C        0.5625        0.12963        0.5428971923076924        0        
C2        C        0.59375        0.185185        0.5428971923076924        0        
C3        C        0.5625        0.203703        0.5428971923076924        0        
C4        C        0.59375        0.148148        0.5428971923076924        0        
C1        C        0.5625        0.24074099999999998        0.5428971923076924        0        
C2        C        0.59375        0.296297        0.5428971923076924        0        
C3        C        0.5625        0.314815        0.5428971923076924        0        
C4        C        0.59375        0.259259        0.5428971923076924        0        
C1        C        0.5625        0.351852        0.5428971923076924        0        
C2        C        0.59375        0.407408        0.5428971923076924        0        
C3        C        0.5625        0.42592500000000005        0.5428971923076924        0        
C4        C        0.59375        0.37037        0.5428971923076924        0        
C1        C        0.5625        0.46296300000000007        0.5428971923076924        0        
C2        C        0.59375        0.518519        0.5428971923076924        0        
C3        C        0.5625        0.537037        0.5428971923076924        0        
C4        C        0.59375        0.481481        0.5428971923076924        0        
C1        C        0.5625        0.574075        0.5428971923076924        0        
C2        C        0.59375        0.62963        0.5428971923076924        0        
C3        C        0.5625        0.648148        0.5428971923076924        0        
C4        C        0.59375        0.592592        0.5428971923076924        0        
C_FG        C        0.625        0.018519        0.5428971923076924        0.2        
C2        C        0.65625        0.074075        0.5428971923076924        0        
C3        C        0.625        0.092592        0.5428971923076924        0        
C4        C        0.65625        0.037037        0.5428971923076924        0        
C_FG        C        0.625        0.12963        0.5428971923076924        0.2        
C2        C        0.65625        0.185185        0.5428971923076924        0        
C3        C        0.625        0.203703        0.5428971923076924        0        
C4        C        0.65625        0.148148        0.5428971923076924        0        
C_FG        C        0.625        0.24074099999999998        0.5428971923076924        0.2        
C2        C        0.65625        0.296297        0.5428971923076924        0        
C3        C        0.625        0.314815        0.5428971923076924        0        
C4        C        0.65625        0.259259        0.5428971923076924        0        
C_FG        C        0.625        0.351852        0.5428971923076924        0.2        
C2        C        0.65625        0.407408        0.5428971923076924        0        
C3        C        0.625        0.42592500000000005        0.5428971923076924        0        
C4        C        0.65625        0.37037        0.5428971923076924        0        
C_FG        C        0.625        0.46296300000000007        0.5428971923076924        0.2        
C2        C        0.65625        0.518519        0.5428971923076924        0        
C3        C        0.625        0.537037        0.5428971923076924        0        
C4        C        0.65625        0.481481        0.5428971923076924        0        
C_FG        C        0.625        0.574075        0.5428971923076924        0.2        
C2        C        0.65625        0.62963        0.5428971923076924        0        
C3        C        0.625        0.648148        0.5428971923076924        0        
C4        C        0.65625        0.592592        0.5428971923076924        0        
C1        C        0.6875        0.018519        0.5428971923076924        0        
C2        C        0.71875        0.074075        0.5428971923076924        0        
C3        C        0.6875        0.092592        0.5428971923076924        0        
C4        C        0.71875        0.037037        0.5428971923076924        0        
C1        C        0.6875        0.12963        0.5428971923076924        0        
C2        C        0.71875        0.185185        0.5428971923076924        0        
C3        C        0.6875        0.203703        0.5428971923076924        0        
C4        C        0.71875        0.148148        0.5428971923076924        0        
C1        C        0.6875        0.24074099999999998        0.5428971923076924        0        
C2        C        0.71875        0.296297        0.5428971923076924        0        
C3        C        0.6875        0.314815        0.5428971923076924        0        
C4        C        0.71875        0.259259        0.5428971923076924        0        
C1        C        0.6875        0.351852        0.5428971923076924        0        
C2        C        0.71875        0.407408        0.5428971923076924        0        
C3        C        0.6875        0.42592500000000005        0.5428971923076924        0        
C4        C        0.71875        0.37037        0.5428971923076924        0        
C1        C        0.6875        0.46296300000000007        0.5428971923076924        0        
C2        C        0.71875        0.518519        0.5428971923076924        0        
C3        C        0.6875        0.537037        0.5428971923076924        0        
C4        C        0.71875        0.481481        0.5428971923076924        0        
C1        C        0.6875        0.574075        0.5428971923076924        0        
C2        C        0.71875        0.62963        0.5428971923076924        0        
C3        C        0.6875        0.648148        0.5428971923076924        0        
C4        C        0.71875        0.592592        0.5428971923076924        0        
C_FG        C        0.75        0.018519        0.5428971923076924        0.2        
C2        C        0.78125        0.074075        0.5428971923076924        0        
C3        C        0.75        0.092592        0.5428971923076924        0        
C4        C        0.78125        0.037037        0.5428971923076924        0        
C_FG        C        0.75        0.12963        0.5428971923076924        0.2        
C2        C        0.78125        0.185185        0.5428971923076924        0        
C3        C        0.75        0.203703        0.5428971923076924        0        
C4        C        0.78125        0.148148        0.5428971923076924        0        
C_FG        C        0.75        0.24074099999999998        0.5428971923076924        0.2        
C2        C        0.78125        0.296297        0.5428971923076924        0        
C3        C        0.75        0.314815        0.5428971923076924        0        
C4        C        0.78125        0.259259        0.5428971923076924        0        
C_FG        C        0.75        0.351852        0.5428971923076924        0.2        
C2        C        0.78125        0.407408        0.5428971923076924        0        
C3        C        0.75        0.42592500000000005        0.5428971923076924        0        
C4        C        0.78125        0.37037        0.5428971923076924        0        
C_FG        C        0.75        0.46296300000000007        0.5428971923076924        0.2        
C2        C        0.78125        0.518519        0.5428971923076924        0        
C3        C        0.75        0.537037        0.5428971923076924        0        
C4        C        0.78125        0.481481        0.5428971923076924        0        
C_FG        C        0.75        0.574075        0.5428971923076924        0.2        
C2        C        0.78125        0.62963        0.5428971923076924        0        
C3        C        0.75        0.648148        0.5428971923076924        0        
C4        C        0.78125        0.592592        0.5428971923076924        0        
C1        C        0.8125        0.018519        0.5428971923076924        0        
C2        C        0.84375        0.074075        0.5428971923076924        0        
C3        C        0.8125        0.092592        0.5428971923076924        0        
C4        C        0.84375        0.037037        0.5428971923076924        0        
C1        C        0.8125        0.12963        0.5428971923076924        0        
C2        C        0.84375        0.185185        0.5428971923076924        0        
C3        C        0.8125        0.203703        0.5428971923076924        0        
C4        C        0.84375        0.148148        0.5428971923076924        0        
C1        C        0.8125        0.24074099999999998        0.5428971923076924        0        
C2        C        0.84375        0.296297        0.5428971923076924        0        
C3        C        0.8125        0.314815        0.5428971923076924        0        
C4        C        0.84375        0.259259        0.5428971923076924        0        
C1        C        0.8125        0.351852        0.5428971923076924        0        
C2        C        0.84375        0.407408        0.5428971923076924        0        
C3        C        0.8125        0.42592500000000005        0.5428971923076924        0        
C4        C        0.84375        0.37037        0.5428971923076924        0        
C1        C        0.8125        0.46296300000000007        0.5428971923076924        0        
C2        C        0.84375        0.518519        0.5428971923076924        0        
C3        C        0.8125        0.537037        0.5428971923076924        0        
C4        C        0.84375        0.481481        0.5428971923076924        0        
C1        C        0.8125        0.574075        0.5428971923076924        0        
C2        C        0.84375        0.62963        0.5428971923076924        0        
C3        C        0.8125        0.648148        0.5428971923076924        0        
C4        C        0.84375        0.592592        0.5428971923076924        0        
C_FG        C        0.875        0.018519        0.5428971923076924        0.2        
C2        C        0.9062500000000001        0.074075        0.5428971923076924        0        
C3        C        0.875        0.092592        0.5428971923076924        0        
C4        C        0.9062500000000001        0.037037        0.5428971923076924        0        
C_FG        C        0.875        0.12963        0.5428971923076924        0.2        
C2        C        0.9062500000000001        0.185185        0.5428971923076924        0        
C3        C        0.875        0.203703        0.5428971923076924        0        
C4        C        0.9062500000000001        0.148148        0.5428971923076924        0        
C_FG        C        0.875        0.24074099999999998        0.5428971923076924        0.2        
C2        C        0.9062500000000001        0.296297        0.5428971923076924        0        
C3        C        0.875        0.314815        0.5428971923076924        0        
C4        C        0.9062500000000001        0.259259        0.5428971923076924        0        
C_FG        C        0.875        0.351852        0.5428971923076924        0.2        
C2        C        0.9062500000000001        0.407408        0.5428971923076924        0        
C3        C        0.875        0.42592500000000005        0.5428971923076924        0        
C4        C        0.9062500000000001        0.37037        0.5428971923076924        0        
C_FG        C        0.875        0.46296300000000007        0.5428971923076924        0.2        
C2        C        0.9062500000000001        0.518519        0.5428971923076924        0        
C3        C        0.875        0.537037        0.5428971923076924        0        
C4        C        0.9062500000000001        0.481481        0.5428971923076924        0        
C_FG        C        0.875        0.574075        0.5428971923076924        0.2        
C2        C        0.9062500000000001        0.62963        0.5428971923076924        0        
C3        C        0.875        0.648148        0.5428971923076924        0        
C4        C        0.9062500000000001        0.592592        0.5428971923076924        0        
C1        C        0.9375        0.018519        0.5428971923076924        0        
C2        C        0.9687500000000001        0.074075        0.5428971923076924        0        
C3        C        0.9375        0.092592        0.5428971923076924        0        
C4        C        0.9687500000000001        0.037037        0.5428971923076924        0        
C1        C        0.9375        0.12963        0.5428971923076924        0        
C2        C        0.9687500000000001        0.185185        0.5428971923076924        0        
C3        C        0.9375        0.203703        0.5428971923076924        0        
C4        C        0.9687500000000001        0.148148        0.5428971923076924        0        
C1        C        0.9375        0.24074099999999998        0.5428971923076924        0        
C2        C        0.9687500000000001        0.296297        0.5428971923076924        0        
C3        C        0.9375        0.314815        0.5428971923076924        0        
C4        C        0.9687500000000001        0.259259        0.5428971923076924        0        
C1        C        0.9375        0.351852        0.5428971923076924        0        
C2        C        0.9687500000000001        0.407408        0.5428971923076924        0        
C3        C        0.9375        0.42592500000000005        0.5428971923076924        0        
C4        C        0.9687500000000001        0.37037        0.5428971923076924        0        
C1        C        0.9375        0.46296300000000007        0.5428971923076924        0        
C2        C        0.9687500000000001        0.518519        0.5428971923076924        0        
C3        C        0.9375        0.537037        0.5428971923076924        0        
C4        C        0.9687500000000001        0.481481        0.5428971923076924        0        
C1        C        0.9375        0.574075        0.5428971923076924        0        
C2        C        0.9687500000000001        0.62963        0.5428971923076924        0        
C3        C        0.9375        0.648148        0.5428971923076924        0        
C4        C        0.9687500000000001        0.592592        0.5428971923076924        0        
C_FG        C        0.0        0.685186        0.5428971923076924        0.2        
C1        C        0.0625        0.685186        0.5428971923076924        0        
C_FG        C        0.125        0.685186        0.5428971923076924        0.2        
C1        C        0.1875        0.685186        0.5428971923076924        0        
C_FG        C        0.25        0.685186        0.5428971923076924        0.2        
C1        C        0.3125        0.685186        0.5428971923076924        0        
C_FG        C        0.375        0.685186        0.5428971923076924        0.2        
C1        C        0.4375        0.685186        0.5428971923076924        0        
C_FG        C        0.5        0.685186        0.5428971923076924        0.2        
C1        C        0.5625        0.685186        0.5428971923076924        0        
C_FG        C        0.625        0.685186        0.5428971923076924        0.2        
C1        C        0.6875        0.685186        0.5428971923076924        0        
C_FG        C        0.75        0.685186        0.5428971923076924        0.2        
C1        C        0.8125        0.685186        0.5428971923076924        0        
C_FG        C        0.875        0.685186        0.5428971923076924        0.2        
C1        C        0.9375        0.685186        0.5428971923076924        0        
C2        C        0.03125        0.740741        0.5428971923076924        0        
C2        C        0.09375        0.740741        0.5428971923076924        0        
C2        C        0.15625        0.740741        0.5428971923076924        0        
C2        C        0.21875        0.740741        0.5428971923076924        0        
C2        C        0.28125        0.740741        0.5428971923076924        0        
C2        C        0.34375        0.740741        0.5428971923076924        0        
C2        C        0.40625        0.740741        0.5428971923076924        0        
C2        C        0.46875        0.740741        0.5428971923076924        0        
C2        C        0.53125        0.740741        0.5428971923076924        0        
C2        C        0.59375        0.740741        0.5428971923076924        0        
C2        C        0.65625        0.740741        0.5428971923076924        0        
C2        C        0.71875        0.740741        0.5428971923076924        0        
C2        C        0.78125        0.740741        0.5428971923076924        0        
C2        C        0.84375        0.740741        0.5428971923076924        0        
C2        C        0.9062500000000001        0.740741        0.5428971923076924        0        
C2        C        0.9687500000000001        0.740741        0.5428971923076924        0        
C3        C        0.0        0.759259        0.5428971923076924        0        
C3        C        0.0625        0.759259        0.5428971923076924        0        
C3        C        0.125        0.759259        0.5428971923076924        0        
C3        C        0.1875        0.759259        0.5428971923076924        0        
C3        C        0.25        0.759259        0.5428971923076924        0        
C3        C        0.3125        0.759259        0.5428971923076924        0        
C3        C        0.375        0.759259        0.5428971923076924        0        
C3        C        0.4375        0.759259        0.5428971923076924        0        
C3        C        0.5        0.759259        0.5428971923076924        0        
C3        C        0.5625        0.759259        0.5428971923076924        0        
C3        C        0.625        0.759259        0.5428971923076924        0        
C3        C        0.6875        0.759259        0.5428971923076924        0        
C3        C        0.75        0.759259        0.5428971923076924        0        
C3        C        0.8125        0.759259        0.5428971923076924        0        
C3        C        0.875        0.759259        0.5428971923076924        0        
C3        C        0.9375        0.759259        0.5428971923076924        0        
C4        C        0.03125        0.703703        0.5428971923076924        0        
C4        C        0.09375        0.703703        0.5428971923076924        0        
C4        C        0.15625        0.703703        0.5428971923076924        0        
C4        C        0.21875        0.703703        0.5428971923076924        0        
C4        C        0.28125        0.703703        0.5428971923076924        0        
C4        C        0.34375        0.703703        0.5428971923076924        0        
C4        C        0.40625        0.703703        0.5428971923076924        0        
C4        C        0.46875        0.703703        0.5428971923076924        0        
C4        C        0.53125        0.703703        0.5428971923076924        0        
C4        C        0.59375        0.703703        0.5428971923076924        0        
C4        C        0.65625        0.703703        0.5428971923076924        0        
C4        C        0.71875        0.703703        0.5428971923076924        0        
C4        C        0.78125        0.703703        0.5428971923076924        0        
C4        C        0.84375        0.703703        0.5428971923076924        0        
C4        C        0.9062500000000001        0.703703        0.5428971923076924        0        
C4        C        0.9687500000000001        0.703703        0.5428971923076924        0        
C_FG        C        0.0        0.796297        0.5428971923076924        0.2        
C1        C        0.0625        0.796297        0.5428971923076924        0        
C_FG        C        0.125        0.796297        0.5428971923076924        0.2        
C1        C        0.1875        0.796297        0.5428971923076924        0        
C_FG        C        0.25        0.796297        0.5428971923076924        0.2        
C1        C        0.3125        0.796297        0.5428971923076924        0        
C_FG        C        0.375        0.796297        0.5428971923076924        0.2        
C1        C        0.4375        0.796297        0.5428971923076924        0        
C_FG        C        0.5        0.796297        0.5428971923076924        0.2        
C1        C        0.5625        0.796297        0.5428971923076924        0        
C_FG        C        0.625        0.796297        0.5428971923076924        0.2        
C1        C        0.6875        0.796297        0.5428971923076924        0        
C_FG        C        0.75        0.796297        0.5428971923076924        0.2        
C1        C        0.8125        0.796297        0.5428971923076924        0        
C_FG        C        0.875        0.796297        0.5428971923076924        0.2        
C1        C        0.9375        0.796297        0.5428971923076924        0        
C2        C        0.03125        0.851852        0.5428971923076924        0        
C2        C        0.09375        0.851852        0.5428971923076924        0        
C2        C        0.15625        0.851852        0.5428971923076924        0        
C2        C        0.21875        0.851852        0.5428971923076924        0        
C2        C        0.28125        0.851852        0.5428971923076924        0        
C2        C        0.34375        0.851852        0.5428971923076924        0        
C2        C        0.40625        0.851852        0.5428971923076924        0        
C2        C        0.46875        0.851852        0.5428971923076924        0        
C2        C        0.53125        0.851852        0.5428971923076924        0        
C2        C        0.59375        0.851852        0.5428971923076924        0        
C2        C        0.65625        0.851852        0.5428971923076924        0        
C2        C        0.71875        0.851852        0.5428971923076924        0        
C2        C        0.78125        0.851852        0.5428971923076924        0        
C2        C        0.84375        0.851852        0.5428971923076924        0        
C2        C        0.9062500000000001        0.851852        0.5428971923076924        0        
C2        C        0.9687500000000001        0.851852        0.5428971923076924        0        
C3        C        0.0        0.87037        0.5428971923076924        0        
C3        C        0.0625        0.87037        0.5428971923076924        0        
C3        C        0.125        0.87037        0.5428971923076924        0        
C3        C        0.1875        0.87037        0.5428971923076924        0        
C3        C        0.25        0.87037        0.5428971923076924        0        
C3        C        0.3125        0.87037        0.5428971923076924        0        
C3        C        0.375        0.87037        0.5428971923076924        0        
C3        C        0.4375        0.87037        0.5428971923076924        0        
C3        C        0.5        0.87037        0.5428971923076924        0        
C3        C        0.5625        0.87037        0.5428971923076924        0        
C3        C        0.625        0.87037        0.5428971923076924        0        
C3        C        0.6875        0.87037        0.5428971923076924        0        
C3        C        0.75        0.87037        0.5428971923076924        0        
C3        C        0.8125        0.87037        0.5428971923076924        0        
C3        C        0.875        0.87037        0.5428971923076924        0        
C3        C        0.9375        0.87037        0.5428971923076924        0        
C4        C        0.03125        0.814814        0.5428971923076924        0        
C4        C        0.09375        0.814814        0.5428971923076924        0        
C4        C        0.15625        0.814814        0.5428971923076924        0        
C4        C        0.21875        0.814814        0.5428971923076924        0        
C4        C        0.28125        0.814814        0.5428971923076924        0        
C4        C        0.34375        0.814814        0.5428971923076924        0        
C4        C        0.40625        0.814814        0.5428971923076924        0        
C4        C        0.46875        0.814814        0.5428971923076924        0        
C4        C        0.53125        0.814814        0.5428971923076924        0        
C4        C        0.59375        0.814814        0.5428971923076924        0        
C4        C        0.65625        0.814814        0.5428971923076924        0        
C4        C        0.71875        0.814814        0.5428971923076924        0        
C4        C        0.78125        0.814814        0.5428971923076924        0        
C4        C        0.84375        0.814814        0.5428971923076924        0        
C4        C        0.9062500000000001        0.814814        0.5428971923076924        0        
C4        C        0.9687500000000001        0.814814        0.5428971923076924        0        
C_FG        C        0.0        0.907408        0.5428971923076924        0.2        
C1        C        0.0625        0.907408        0.5428971923076924        0        
C_FG        C        0.125        0.907408        0.5428971923076924        0.2        
C1        C        0.1875        0.907408        0.5428971923076924        0        
C_FG        C        0.25        0.907408        0.5428971923076924        0.2        
C1        C        0.3125        0.907408        0.5428971923076924        0        
C_FG        C        0.375        0.907408        0.5428971923076924        0.2        
C1        C        0.4375        0.907408        0.5428971923076924        0        
C_FG        C        0.5        0.907408        0.5428971923076924        0.2        
C1        C        0.5625        0.907408        0.5428971923076924        0        
C_FG        C        0.625        0.907408        0.5428971923076924        0.2        
C1        C        0.6875        0.907408        0.5428971923076924        0        
C_FG        C        0.75        0.907408        0.5428971923076924        0.2        
C1        C        0.8125        0.907408        0.5428971923076924        0        
C_FG        C        0.875        0.907408        0.5428971923076924        0.2        
C1        C        0.9375        0.907408        0.5428971923076924        0        
C2        C        0.03125        0.962963        0.5428971923076924        0        
C2        C        0.09375        0.962963        0.5428971923076924        0        
C2        C        0.15625        0.962963        0.5428971923076924        0        
C2        C        0.21875        0.962963        0.5428971923076924        0        
C2        C        0.28125        0.962963        0.5428971923076924        0        
C2        C        0.34375        0.962963        0.5428971923076924        0        
C2        C        0.40625        0.962963        0.5428971923076924        0        
C2        C        0.46875        0.962963        0.5428971923076924        0        
C2        C        0.53125        0.962963        0.5428971923076924        0        
C2        C        0.59375        0.962963        0.5428971923076924        0        
C2        C        0.65625        0.962963        0.5428971923076924        0        
C2        C        0.71875        0.962963        0.5428971923076924        0        
C2        C        0.78125        0.962963        0.5428971923076924        0        
C2        C        0.84375        0.962963        0.5428971923076924        0        
C2        C        0.9062500000000001        0.962963        0.5428971923076924        0        
C2        C        0.9687500000000001        0.962963        0.5428971923076924        0        
C3        C        0.0        0.9814809999999999        0.5428971923076924        0        
C3        C        0.0625        0.9814809999999999        0.5428971923076924        0        
C3        C        0.125        0.9814809999999999        0.5428971923076924        0        
C3        C        0.1875        0.9814809999999999        0.5428971923076924        0        
C3        C        0.25        0.9814809999999999        0.5428971923076924        0        
C3        C        0.3125        0.9814809999999999        0.5428971923076924        0        
C3        C        0.375        0.9814809999999999        0.5428971923076924        0        
C3        C        0.4375        0.9814809999999999        0.5428971923076924        0        
C3        C        0.5        0.9814809999999999        0.5428971923076924        0        
C3        C        0.5625        0.9814809999999999        0.5428971923076924        0        
C3        C        0.625        0.9814809999999999        0.5428971923076924        0        
C3        C        0.6875        0.9814809999999999        0.5428971923076924        0        
C3        C        0.75        0.9814809999999999        0.5428971923076924        0        
C3        C        0.8125        0.9814809999999999        0.5428971923076924        0        
C3        C        0.875        0.9814809999999999        0.5428971923076924        0        
C3        C        0.9375        0.9814809999999999        0.5428971923076924        0        
C4        C        0.03125        0.925925        0.5428971923076924        0        
C4        C        0.09375        0.925925        0.5428971923076924        0        
C4        C        0.15625        0.925925        0.5428971923076924        0        
C4        C        0.21875        0.925925        0.5428971923076924        0        
C4        C        0.28125        0.925925        0.5428971923076924        0        
C4        C        0.34375        0.925925        0.5428971923076924        0        
C4        C        0.40625        0.925925        0.5428971923076924        0        
C4        C        0.46875        0.925925        0.5428971923076924        0        
C4        C        0.53125        0.925925        0.5428971923076924        0        
C4        C        0.59375        0.925925        0.5428971923076924        0        
C4        C        0.65625        0.925925        0.5428971923076924        0        
C4        C        0.71875        0.925925        0.5428971923076924        0        
C4        C        0.78125        0.925925        0.5428971923076924        0        
C4        C        0.84375        0.925925        0.5428971923076924        0        
C4        C        0.9062500000000001        0.925925        0.5428971923076924        0        
C4        C        0.9687500000000001        0.925925        0.5428971923076924        0        
O_OH        O        0.0        0.018519        0.021551217948717945        -0.64        
O_OH        O        0.0        0.12963        0.021551217948717945        -0.64        
O_OH        O        0.0        0.24074099999999998        0.021551217948717945        -0.64        
O_OH        O        0.0        0.351852        0.021551217948717945        -0.64        
O_OH        O        0.0        0.46296300000000007        0.021551217948717945        -0.64        
O_OH        O        0.0        0.574075        0.021551217948717945        -0.64        
O_OH        O        0.125        0.018519        0.021551217948717945        -0.64        
O_OH        O        0.125        0.12963        0.021551217948717945        -0.64        
O_OH        O        0.125        0.24074099999999998        0.021551217948717945        -0.64        
O_OH        O        0.125        0.351852        0.021551217948717945        -0.64        
O_OH        O        0.125        0.46296300000000007        0.021551217948717945        -0.64        
O_OH        O        0.125        0.574075        0.021551217948717945        -0.64        
O_OH        O        0.25        0.018519        0.021551217948717945        -0.64        
O_OH        O        0.25        0.12963        0.021551217948717945        -0.64        
O_OH        O        0.25        0.24074099999999998        0.021551217948717945        -0.64        
O_OH        O        0.25        0.351852        0.021551217948717945        -0.64        
O_OH        O        0.25        0.46296300000000007        0.021551217948717945        -0.64        
O_OH        O        0.25        0.574075        0.021551217948717945        -0.64        
O_OH        O        0.375        0.018519        0.021551217948717945        -0.64        
O_OH        O        0.375        0.12963        0.021551217948717945        -0.64        
O_OH        O        0.375        0.24074099999999998        0.021551217948717945        -0.64        
O_OH        O        0.375        0.351852        0.021551217948717945        -0.64        
O_OH        O        0.375        0.46296300000000007        0.021551217948717945        -0.64        
O_OH        O        0.375        0.574075        0.021551217948717945        -0.64        
O_OH        O        0.5        0.018519        0.021551217948717945        -0.64        
O_OH        O        0.5        0.12963        0.021551217948717945        -0.64        
O_OH        O        0.5        0.24074099999999998        0.021551217948717945        -0.64        
O_OH        O        0.5        0.351852        0.021551217948717945        -0.64        
O_OH        O        0.5        0.46296300000000007        0.021551217948717945        -0.64        
O_OH        O        0.5        0.574075        0.021551217948717945        -0.64        
O_OH        O        0.625        0.018519        0.021551217948717945        -0.64        
O_OH        O        0.625        0.12963        0.021551217948717945        -0.64        
O_OH        O        0.625        0.24074099999999998        0.021551217948717945        -0.64        
O_OH        O        0.625        0.351852        0.021551217948717945        -0.64        
O_OH        O        0.625        0.46296300000000007        0.021551217948717945        -0.64        
O_OH        O        0.625        0.574075        0.021551217948717945        -0.64        
O_OH        O        0.75        0.018519        0.021551217948717945        -0.64        
O_OH        O        0.75        0.12963        0.021551217948717945        -0.64        
O_OH        O        0.75        0.24074099999999998        0.021551217948717945        -0.64        
O_OH        O        0.75        0.351852        0.021551217948717945        -0.64        
O_OH        O        0.75        0.46296300000000007        0.021551217948717945        -0.64        
O_OH        O        0.75        0.574075        0.021551217948717945        -0.64        
O_OH        O        0.875        0.018519        0.021551217948717945        -0.64        
O_OH        O        0.875        0.12963        0.021551217948717945        -0.64        
O_OH        O        0.875        0.24074099999999998        0.021551217948717945        -0.64        
O_OH        O        0.875        0.351852        0.021551217948717945        -0.64        
O_OH        O        0.875        0.46296300000000007        0.021551217948717945        -0.64        
O_OH        O        0.875        0.574075        0.021551217948717945        -0.64        
O_OH        O        0.0        0.685186        0.021551217948717945        -0.64        
O_OH        O        0.125        0.685186        0.021551217948717945        -0.64        
O_OH        O        0.25        0.685186        0.021551217948717945        -0.64        
O_OH        O        0.375        0.685186        0.021551217948717945        -0.64        
O_OH        O        0.5        0.685186        0.021551217948717945        -0.64        
O_OH        O        0.625        0.685186        0.021551217948717945        -0.64        
O_OH        O        0.75        0.685186        0.021551217948717945        -0.64        
O_OH        O        0.875        0.685186        0.021551217948717945        -0.64        
O_OH        O        0.0        0.796297        0.021551217948717945        -0.64        
O_OH        O        0.125        0.796297        0.021551217948717945        -0.64        
O_OH        O        0.25        0.796297        0.021551217948717945        -0.64        
O_OH        O        0.375        0.796297        0.021551217948717945        -0.64        
O_OH        O        0.5        0.796297        0.021551217948717945        -0.64        
O_OH        O        0.625        0.796297        0.021551217948717945        -0.64        
O_OH        O        0.75        0.796297        0.021551217948717945        -0.64        
O_OH        O        0.875        0.796297        0.021551217948717945        -0.64        
O_OH        O        0.0        0.907408        0.021551217948717945        -0.64        
O_OH        O        0.125        0.907408        0.021551217948717945        -0.64        
O_OH        O        0.25        0.907408        0.021551217948717945        -0.64        
O_OH        O        0.375        0.907408        0.021551217948717945        -0.64        
O_OH        O        0.5        0.907408        0.021551217948717945        -0.64        
O_OH        O        0.625        0.907408        0.021551217948717945        -0.64        
O_OH        O        0.75        0.907408        0.021551217948717945        -0.64        
O_OH        O        0.875        0.907408        0.021551217948717945        -0.64        
O_OH        O        0.0        0.018519        0.6347563461538461        -0.64        
O_OH        O        0.0        0.12963        0.6347563461538461        -0.64        
O_OH        O        0.0        0.24074099999999998        0.6347563461538461        -0.64        
O_OH        O        0.0        0.351852        0.6347563461538461        -0.64        
O_OH        O        0.0        0.46296300000000007        0.6347563461538461        -0.64        
O_OH        O        0.0        0.574075        0.6347563461538461        -0.64        
O_OH        O        0.125        0.018519        0.6347563461538461        -0.64        
O_OH        O        0.125        0.12963        0.6347563461538461        -0.64        
O_OH        O        0.125        0.24074099999999998        0.6347563461538461        -0.64        
O_OH        O        0.125        0.351852        0.6347563461538461        -0.64        
O_OH        O        0.125        0.46296300000000007        0.6347563461538461        -0.64        
O_OH        O        0.125        0.574075        0.6347563461538461        -0.64        
O_OH        O        0.25        0.018519        0.6347563461538461        -0.64        
O_OH        O        0.25        0.12963        0.6347563461538461        -0.64        
O_OH        O        0.25        0.24074099999999998        0.6347563461538461        -0.64        
O_OH        O        0.25        0.351852        0.6347563461538461        -0.64        
O_OH        O        0.25        0.46296300000000007        0.6347563461538461        -0.64        
O_OH        O        0.25        0.574075        0.6347563461538461        -0.64        
O_OH        O        0.375        0.018519        0.6347563461538461        -0.64        
O_OH        O        0.375        0.12963        0.6347563461538461        -0.64        
O_OH        O        0.375        0.24074099999999998        0.6347563461538461        -0.64        
O_OH        O        0.375        0.351852        0.6347563461538461        -0.64        
O_OH        O        0.375        0.46296300000000007        0.6347563461538461        -0.64        
O_OH        O        0.375        0.574075        0.6347563461538461        -0.64        
O_OH        O        0.5        0.018519        0.6347563461538461        -0.64        
O_OH        O        0.5        0.12963        0.6347563461538461        -0.64        
O_OH        O        0.5        0.24074099999999998        0.6347563461538461        -0.64        
O_OH        O        0.5        0.351852        0.6347563461538461        -0.64        
O_OH        O        0.5        0.46296300000000007        0.6347563461538461        -0.64        
O_OH        O        0.5        0.574075        0.6347563461538461        -0.64        
O_OH        O        0.625        0.018519        0.6347563461538461        -0.64        
O_OH        O        0.625        0.12963        0.6347563461538461        -0.64        
O_OH        O        0.625        0.24074099999999998        0.6347563461538461        -0.64        
O_OH        O        0.625        0.351852        0.6347563461538461        -0.64        
O_OH        O        0.625        0.46296300000000007        0.6347563461538461        -0.64        
O_OH        O        0.625        0.574075        0.6347563461538461        -0.64        
O_OH        O        0.75        0.018519        0.6347563461538461        -0.64        
O_OH        O        0.75        0.12963        0.6347563461538461        -0.64        
O_OH        O        0.75        0.24074099999999998        0.6347563461538461        -0.64        
O_OH        O        0.75        0.351852        0.6347563461538461        -0.64        
O_OH        O        0.75        0.46296300000000007        0.6347563461538461        -0.64        
O_OH        O        0.75        0.574075        0.6347563461538461        -0.64        
O_OH        O        0.875        0.018519        0.6347563461538461        -0.64        
O_OH        O        0.875        0.12963        0.6347563461538461        -0.64        
O_OH        O        0.875        0.24074099999999998        0.6347563461538461        -0.64        
O_OH        O        0.875        0.351852        0.6347563461538461        -0.64        
O_OH        O        0.875        0.46296300000000007        0.6347563461538461        -0.64        
O_OH        O        0.875        0.574075        0.6347563461538461        -0.64        
O_OH        O        0.0        0.685186        0.6347563461538461        -0.64        
O_OH        O        0.125        0.685186        0.6347563461538461        -0.64        
O_OH        O        0.25        0.685186        0.6347563461538461        -0.64        
O_OH        O        0.375        0.685186        0.6347563461538461        -0.64        
O_OH        O        0.5        0.685186        0.6347563461538461        -0.64        
O_OH        O        0.625        0.685186        0.6347563461538461        -0.64        
O_OH        O        0.75        0.685186        0.6347563461538461        -0.64        
O_OH        O        0.875        0.685186        0.6347563461538461        -0.64        
O_OH        O        0.0        0.796297        0.6347563461538461        -0.64        
O_OH        O        0.125        0.796297        0.6347563461538461        -0.64        
O_OH        O        0.25        0.796297        0.6347563461538461        -0.64        
O_OH        O        0.375        0.796297        0.6347563461538461        -0.64        
O_OH        O        0.5        0.796297        0.6347563461538461        -0.64        
O_OH        O        0.625        0.796297        0.6347563461538461        -0.64        
O_OH        O        0.75        0.796297        0.6347563461538461        -0.64        
O_OH        O        0.875        0.796297        0.6347563461538461        -0.64        
O_OH        O        0.0        0.907408        0.6347563461538461        -0.64        
O_OH        O        0.125        0.907408        0.6347563461538461        -0.64        
O_OH        O        0.25        0.907408        0.6347563461538461        -0.64        
O_OH        O        0.375        0.907408        0.6347563461538461        -0.64        
O_OH        O        0.5        0.907408        0.6347563461538461        -0.64        
O_OH        O        0.625        0.907408        0.6347563461538461        -0.64        
O_OH        O        0.75        0.907408        0.6347563461538461        -0.64        
O_OH        O        0.875        0.907408        0.6347563461538461        -0.64        
H_OH        H        -0.010582897825529404        0.039304287243567354        0.0        0.44        
H_OH        H        -0.02281250552873445        0.1308931470855464        0.0        0.44        
H_OH        H        -0.02220558976816948        0.24625378813678342        0.0        0.44        
H_OH        H        -0.017883947353012054        0.3664459902616588        0.0        0.44        
H_OH        H        0.022013439427146793        0.46923561046230194        0.0        0.44        
H_OH        H        0.01715617144799108        0.589562441194505        0.0        0.44        
H_OH        H        0.14784482200077462        0.018720257934020868        0.0        0.44        
H_OH        H        0.10496696711664392        0.14090405344362608        0.0        0.44        
H_OH        H        0.12641608954891254        0.26414935159248937        0.0        0.44        
H_OH        H        0.10686751408061083        0.36611911085792415        0.0        0.44        
H_OH        H        0.11067481438598019        0.48123290075301284        0.0        0.44        
H_OH        H        0.11717270566899299        0.59610894141132        0.0        0.44        
H_OH        H        0.23185259546745557        0.03276610584038923        0.0        0.44        
H_OH        H        0.2582613118581584        0.15149630641857567        0.0        0.44        
H_OH        H        0.2720652254710696        0.24681882120928633        0.0        0.44        
H_OH        H        0.2522076520249907        0.37519568979090195        0.0        0.44        
H_OH        H        0.22730071350113237        0.46561369037686057        0.0        0.44        
H_OH        H        0.2413973389707755        0.5958021370892322        0.0        0.44        
H_OH        H        0.3549476121217202        0.029756730958889525        0.0        0.44        
H_OH        H        0.3695766868192657        0.15241302512169014        0.0        0.44        
H_OH        H        0.3718034377675241        0.26396373516463595        0.0        0.44        
H_OH        H        0.35779060543940705        0.3672770827508778        0.0        0.44        
H_OH        H        0.39744722239270713        0.4673241382667018        0.0        0.44        
H_OH        H        0.3975935007566077        0.5775500279984923        0.0        0.44        
H_OH        H        0.5008323563561602        0.04195687919198071        0.0        0.44        
H_OH        H        0.49813194312303416        0.153004913230889        0.0        0.44        
H_OH        H        0.4814731675302688        0.25446377458759145        0.0        0.44        
H_OH        H        0.5056754649148689        0.3745702034888491        0.0        0.44        
H_OH        H        0.4894800366570091        0.4837819305451587        0.0        0.44        
H_OH        H        0.48015554423259116        0.5856952284635133        0.0        0.44        
H_OH        H        0.6044521458926058        0.028770144967548088        0.0        0.44        
H_OH        H        0.6476714398848534        0.1325209685371914        0.0        0.44        
H_OH        H        0.6339580677553428        0.26231623545420435        0.0        0.44        
H_OH        H        0.6351864413529431        0.3728450049272436        0.0        0.44        
H_OH        H        0.6165412575614649        0.4847496088971526        0.0        0.44        
H_OH        H        0.6214031512782356        0.5972359478171237        0.0        0.44        
H_OH        H        0.7595096454623683        0.03984398998973799        0.0        0.44        
H_OH        H        0.7717812992695583        0.13670533014366607        0.0        0.44        
H_OH        H        0.7677592738932324        0.25549457261990355        0.0        0.44        
H_OH        H        0.7728447730251712        0.352059034001586        0.0        0.44        
H_OH        H        0.7507408211548975        0.4864041165708892        0.0        0.44        
H_OH        H        0.7303749998948421        0.5860816029229153        0.0        0.44        
H_OH        H        0.8703619110706851        0.04148403104709724        0.0        0.44        
H_OH        H        0.8952145544880086        0.14055724005239204        0.0        0.44        
H_OH        H        0.8962614866191905        0.2493224221357324        0.0        0.44        
H_OH        H        0.8718739150682724        0.3750848443530135        0.0        0.44        
H_OH        H        0.8972520111910792        0.4682748525097408        0.0        0.44        
H_OH        H        0.8867559714988067        0.5941849515725413        0.0        0.44        
H_OH        H        -0.009685699681287626        0.7064273175666402        0.0        0.44        
H_OH        H        0.13340380264087506        0.7069950050459207        0.0        0.44        
H_OH        H        0.25145383437757446        0.7085919129080839        0.0        0.44        
H_OH        H        0.3886637424318913        0.7039822897693231        0.0        0.44        
H_OH        H        0.5218126949004935        0.6921586496458279        0.0        0.44        
H_OH        H        0.6070836431268285        0.6997380350474202        0.0        0.44        
H_OH        H        0.742702338169483        0.7074106967353123        0.0        0.44        
H_OH        H        0.8589781442416926        0.7019049797032836        0.0        0.44        
H_OH        H        0.019491347486938582        0.8085309032422717        0.0        0.44        
H_OH        H        0.13100118966991914        0.8189268106894791        0.0        0.44        
H_OH        H        0.23214084940950788        0.8109229581310248        0.0        0.44        
H_OH        H        0.3858873320751678        0.8169159108178934        0.0        0.44        
H_OH        H        0.4787530766461897        0.8049163528980132        0.0        0.44        
H_OH        H        0.6270844536729473        0.8196526233716541        0.0        0.44        
H_OH        H        0.7719235410410621        0.8028930947653937        0.0        0.44        
H_OH        H        0.8579422461673202        0.8118985908230608        0.0        0.44        
H_OH        H        -0.022646136299814778        0.9105009308835665        0.0        0.44        
H_OH        H        0.1467700103358317        0.9145198529324563        0.0        0.44        
H_OH        H        0.24873326565528245        0.9308253700862363        0.0        0.44        
H_OH        H        0.3787815253619662        0.9305379248573767        0.0        0.44        
H_OH        H        0.4775993657361744        0.9120146859473444        0.0        0.44        
H_OH        H        0.6270603464469089        0.93076587768549        0.0        0.44        
H_OH        H        0.7411822102229236        0.9290440529880359        0.0        0.44        
H_OH        H        0.890626995819845        0.9245163291332091        0.0        0.44        
H_OH        H        -0.017682407667117327        0.03336955738939996        0.6563075641025641        0.44        
H_OH        H        -0.02284550091227634        0.12971838900128424        0.6563075641025641        0.44        
H_OH        H        -0.017126044513987977        0.256263542901883        0.6563075641025641        0.44        
H_OH        H        0.018836138724641082        0.3651235808025303        0.6563075641025641        0.44        
H_OH        H        0.021824531709892972        0.46989650334268196        0.6563075641025641        0.44        
H_OH        H        -0.013225529092858191        0.5931987823291097        0.6563075641025641        0.44        
H_OH        H        0.13294682367408298        0.04050780277136526        0.6563075641025641        0.44        
H_OH        H        0.10680443885575339        0.1438122251280788        0.6563075641025641        0.44        
H_OH        H        0.13554766332864068        0.2615451542057882        0.6563075641025641        0.44        
H_OH        H        0.1478397949074021        0.3523835524101715        0.6563075641025641        0.44        
H_OH        H        0.13782790860999602        0.48237013699956416        0.6563075641025641        0.44        
H_OH        H        0.11298918736511421        0.5940256100793153        0.6563075641025641        0.44        
H_OH        H        0.23077470457121027        0.03118882239940782        0.6563075641025641        0.44        
H_OH        H        0.2544702822143326        0.15263007618225172        0.6563075641025641        0.44        
H_OH        H        0.2286600164395772        0.24911455488219714        0.6563075641025641        0.44        
H_OH        H        0.231284956955757        0.3653029224211902        0.6563075641025641        0.44        
H_OH        H        0.27252344250056887        0.46688818179816616        0.6563075641025641        0.44        
H_OH        H        0.2338073435357632        0.5906196475161896        0.6563075641025641        0.44        
H_OH        H        0.3729128252142634        0.04187436725427452        0.6563075641025641        0.44        
H_OH        H        0.3580868145189115        0.1453965959096703        0.6563075641025641        0.44        
H_OH        H        0.38190619819487237        0.2630971451961983        0.6563075641025641        0.44        
H_OH        H        0.3850732174916157        0.37290250614934817        0.6563075641025641        0.44        
H_OH        H        0.35459047548497913        0.47350136123795505        0.6563075641025641        0.44        
H_OH        H        0.3785937484784515        0.5972364550128952        0.6563075641025641        0.44        
H_OH        H        0.4833704279053283        0.034600406442697164        0.6563075641025641        0.44        
H_OH        H        0.47886029801755076        0.13852286404598949        0.6563075641025641        0.44        
H_OH        H        0.5216262127815041        0.24830110401956193        0.6563075641025641        0.44        
H_OH        H        0.4774080587167787        0.35533769710333035        0.6563075641025641        0.44        
H_OH        H        0.5123008995993811        0.48272645337145836        0.6563075641025641        0.44        
H_OH        H        0.5148800402116793        0.5918713740962779        0.6563075641025641        0.44        
H_OH        H        0.6321753995981194        0.040785613089132255        0.6563075641025641        0.44        
H_OH        H        0.6419781672120812        0.1453228164389204        0.6563075641025641        0.44        
H_OH        H        0.6237575353511228        0.26415974041438456        0.6563075641025641        0.44        
H_OH        H        0.6147179739588938        0.37279583677414        0.6563075641025641        0.44        
H_OH        H        0.6269750290885201        0.48632864358477557        0.6563075641025641        0.44        
H_OH        H        0.646769213753108        0.5811894223005347        0.6563075641025641        0.44        
H_OH        H        0.7442802549365329        0.04122549649751889        0.6563075641025641        0.44        
H_OH        H        0.7442735498979564        0.15233471532781942        0.6563075641025641        0.44        
H_OH        H        0.7392997906967538        0.26146289176554616        0.6563075641025641        0.44        
H_OH        H        0.7718031579738514        0.35885601536267275        0.6563075641025641        0.44        
H_OH        H        0.7500920480659483        0.48641626037721264        0.6563075641025641        0.44        
H_OH        H        0.7727664441355113        0.5760264515537167        0.6563075641025641        0.44        
H_OH        H        0.85966678377981        0.03590522430194727        0.6563075641025641        0.44        
H_OH        H        0.8541290810923162        0.1391685313067022        0.6563075641025641        0.44        
H_OH        H        0.8689576263605655        0.26335925783985137        0.6563075641025641        0.44        
H_OH        H        0.8614810771416209        0.3707583305668669        0.6563075641025641        0.44        
H_OH        H        0.8970911618688052        0.46894070067966065        0.6563075641025641        0.44        
H_OH        H        0.8969662987864909        0.5805194282369718        0.6563075641025641        0.44        
H_OH        H        0.0061245484784733665        0.7077809522440478        0.6563075641025641        0.44        
H_OH        H        0.13917412892360878        0.7035796509242388        0.6563075641025641        0.44        
H_OH        H        0.23733630968707553        0.7047064727294653        0.6563075641025641        0.44        
H_OH        H        0.3721040462869737        0.7084502566114553        0.6563075641025641        0.44        
H_OH        H        0.5227471939240224        0.6873612123114275        0.6563075641025641        0.44        
H_OH        H        0.6240865166129265        0.7086206945756418        0.6563075641025641        0.44        
H_OH        H        0.7703498502844698        0.6958452908180476        0.6563075641025641        0.44        
H_OH        H        0.8688932977581215        0.7077860424240199        0.6563075641025641        0.44        
H_OH        H        0.01899843916523236        0.8093224832526068        0.6563075641025641        0.44        
H_OH        H        0.1066492102042162        0.8102668461562336        0.6563075641025641        0.44        
H_OH        H        0.23290491576030592        0.8118554689909998        0.6563075641025641        0.44        
H_OH        H        0.365926043253485        0.8178211353596916        0.6563075641025641        0.44        
H_OH        H        0.4784510670124752        0.8040861997780754        0.6563075641025641        0.44        
H_OH        H        0.6304376865885633        0.8190764141128735        0.6563075641025641        0.44        
H_OH        H        0.7303447761837505        0.8082513845910941        0.6563075641025641        0.44        
H_OH        H        0.8575825392719099        0.8114739579971809        0.6563075641025641        0.44        
H_OH        H        0.022490248975366896        0.9115288948567902        0.6563075641025641        0.44        
H_OH        H        0.1075433878321689        0.9225374768152804        0.6563075641025641        0.44        
H_OH        H        0.2503581522858736        0.9308585684999292        0.6563075641025641        0.44        
H_OH        H        0.3827181117912916        0.9294824959583415        0.6563075641025641        0.44        
H_OH        H        0.5217090815771074        0.9147135054132519        0.6563075641025641        0.44        
H_OH        H        0.6142673946383664        0.9281122271944915        0.6563075641025641        0.44        
H_OH        H        0.7279772201908711        0.9136459604417597        0.6563075641025641        0.44        
H_OH        H        0.8907466813852936        0.9244002775534625        0.6563075641025641        0.44        
