data_graphite_ortho

_audit_creation_method RASPA-1.0
_audit_creation_date 2012-2-3
_audit_author_name 'David Dubbeldam'

_cell_length_a    39.36    
_cell_length_b    38.34    
_cell_length_c    25.2    
_cell_angle_alpha 90
_cell_angle_beta  90
_cell_angle_gamma 90
_cell_volume      38028.37      

_symmetry_cell_setting          triclinic
_symmetry_space_group_name_Hall 'P 1'
_symmetry_space_group_name_H-M  'P 1'
_symmetry_Int_Tables_number     1

_symmetry_equiv_pos_as_xyz 'x,y,z'

loop_
_atom_site_label
_atom_site_type_symbol
_atom_site_fract_x
_atom_site_fract_y
_atom_site_fract_z
_atom_site_charge
C_FG        C        0.0        0.018519        0.0921325        0.08        
C2        C        0.03125        0.074075        0.0921325        0        
C3        C        0.0        0.092592        0.0921325        0        
C4        C        0.03125        0.037037        0.0921325        0        
C_FG        C        0.0        0.12963        0.0921325        0.08        
C2        C        0.03125        0.185185        0.0921325        0        
C3        C        0.0        0.203703        0.0921325        0        
C4        C        0.03125        0.148148        0.0921325        0        
C_FG        C        0.0        0.24074099999999998        0.0921325        0.08        
C2        C        0.03125        0.296297        0.0921325        0        
C3        C        0.0        0.314815        0.0921325        0        
C4        C        0.03125        0.259259        0.0921325        0        
C_FG        C        0.0        0.351852        0.0921325        0.08        
C2        C        0.03125        0.407408        0.0921325        0        
C3        C        0.0        0.42592500000000005        0.0921325        0        
C4        C        0.03125        0.37037        0.0921325        0        
C_FG        C        0.0        0.46296300000000007        0.0921325        0.08        
C2        C        0.03125        0.518519        0.0921325        0        
C3        C        0.0        0.537037        0.0921325        0        
C4        C        0.03125        0.481481        0.0921325        0        
C_FG        C        0.0        0.574075        0.0921325        0.08        
C2        C        0.03125        0.62963        0.0921325        0        
C3        C        0.0        0.648148        0.0921325        0        
C4        C        0.03125        0.592592        0.0921325        0        
C1        C        0.0625        0.018519        0.0921325        0        
C2        C        0.09375        0.074075        0.0921325        0        
C3        C        0.0625        0.092592        0.0921325        0        
C4        C        0.09375        0.037037        0.0921325        0        
C1        C        0.0625        0.12963        0.0921325        0        
C2        C        0.09375        0.185185        0.0921325        0        
C3        C        0.0625        0.203703        0.0921325        0        
C4        C        0.09375        0.148148        0.0921325        0        
C1        C        0.0625        0.24074099999999998        0.0921325        0        
C2        C        0.09375        0.296297        0.0921325        0        
C3        C        0.0625        0.314815        0.0921325        0        
C4        C        0.09375        0.259259        0.0921325        0        
C1        C        0.0625        0.351852        0.0921325        0        
C2        C        0.09375        0.407408        0.0921325        0        
C3        C        0.0625        0.42592500000000005        0.0921325        0        
C4        C        0.09375        0.37037        0.0921325        0        
C1        C        0.0625        0.46296300000000007        0.0921325        0        
C2        C        0.09375        0.518519        0.0921325        0        
C3        C        0.0625        0.537037        0.0921325        0        
C4        C        0.09375        0.481481        0.0921325        0        
C1        C        0.0625        0.574075        0.0921325        0        
C2        C        0.09375        0.62963        0.0921325        0        
C3        C        0.0625        0.648148        0.0921325        0        
C4        C        0.09375        0.592592        0.0921325        0        
C1        C        0.125        0.018519        0.0921325        0        
C2        C        0.15625        0.074075        0.0921325        0        
C3        C        0.125        0.092592        0.0921325        0        
C4        C        0.15625        0.037037        0.0921325        0        
C1        C        0.125        0.12963        0.0921325        0        
C2        C        0.15625        0.185185        0.0921325        0        
C3        C        0.125        0.203703        0.0921325        0        
C4        C        0.15625        0.148148        0.0921325        0        
C1        C        0.125        0.24074099999999998        0.0921325        0        
C2        C        0.15625        0.296297        0.0921325        0        
C3        C        0.125        0.314815        0.0921325        0        
C4        C        0.15625        0.259259        0.0921325        0        
C1        C        0.125        0.351852        0.0921325        0        
C2        C        0.15625        0.407408        0.0921325        0        
C3        C        0.125        0.42592500000000005        0.0921325        0        
C4        C        0.15625        0.37037        0.0921325        0        
C1        C        0.125        0.46296300000000007        0.0921325        0        
C2        C        0.15625        0.518519        0.0921325        0        
C3        C        0.125        0.537037        0.0921325        0        
C4        C        0.15625        0.481481        0.0921325        0        
C1        C        0.125        0.574075        0.0921325        0        
C2        C        0.15625        0.62963        0.0921325        0        
C3        C        0.125        0.648148        0.0921325        0        
C4        C        0.15625        0.592592        0.0921325        0        
C1        C        0.1875        0.018519        0.0921325        0        
C2        C        0.21875        0.074075        0.0921325        0        
C3        C        0.1875        0.092592        0.0921325        0        
C4        C        0.21875        0.037037        0.0921325        0        
C1        C        0.1875        0.12963        0.0921325        0        
C2        C        0.21875        0.185185        0.0921325        0        
C3        C        0.1875        0.203703        0.0921325        0        
C4        C        0.21875        0.148148        0.0921325        0        
C1        C        0.1875        0.24074099999999998        0.0921325        0        
C2        C        0.21875        0.296297        0.0921325        0        
C3        C        0.1875        0.314815        0.0921325        0        
C4        C        0.21875        0.259259        0.0921325        0        
C1        C        0.1875        0.351852        0.0921325        0        
C2        C        0.21875        0.407408        0.0921325        0        
C3        C        0.1875        0.42592500000000005        0.0921325        0        
C4        C        0.21875        0.37037        0.0921325        0        
C1        C        0.1875        0.46296300000000007        0.0921325        0        
C2        C        0.21875        0.518519        0.0921325        0        
C3        C        0.1875        0.537037        0.0921325        0        
C4        C        0.21875        0.481481        0.0921325        0        
C1        C        0.1875        0.574075        0.0921325        0        
C2        C        0.21875        0.62963        0.0921325        0        
C3        C        0.1875        0.648148        0.0921325        0        
C4        C        0.21875        0.592592        0.0921325        0        
C_FG        C        0.25        0.018519        0.0921325        0.08        
C2        C        0.28125        0.074075        0.0921325        0        
C3        C        0.25        0.092592        0.0921325        0        
C4        C        0.28125        0.037037        0.0921325        0        
C_FG        C        0.25        0.12963        0.0921325        0.08        
C2        C        0.28125        0.185185        0.0921325        0        
C3        C        0.25        0.203703        0.0921325        0        
C4        C        0.28125        0.148148        0.0921325        0        
C_FG        C        0.25        0.24074099999999998        0.0921325        0.08        
C2        C        0.28125        0.296297        0.0921325        0        
C3        C        0.25        0.314815        0.0921325        0        
C4        C        0.28125        0.259259        0.0921325        0        
C_FG        C        0.25        0.351852        0.0921325        0.08        
C2        C        0.28125        0.407408        0.0921325        0        
C3        C        0.25        0.42592500000000005        0.0921325        0        
C4        C        0.28125        0.37037        0.0921325        0        
C_FG        C        0.25        0.46296300000000007        0.0921325        0.08        
C2        C        0.28125        0.518519        0.0921325        0        
C3        C        0.25        0.537037        0.0921325        0        
C4        C        0.28125        0.481481        0.0921325        0        
C_FG        C        0.25        0.574075        0.0921325        0.08        
C2        C        0.28125        0.62963        0.0921325        0        
C3        C        0.25        0.648148        0.0921325        0        
C4        C        0.28125        0.592592        0.0921325        0        
C1        C        0.3125        0.018519        0.0921325        0        
C2        C        0.34375        0.074075        0.0921325        0        
C3        C        0.3125        0.092592        0.0921325        0        
C4        C        0.34375        0.037037        0.0921325        0        
C1        C        0.3125        0.12963        0.0921325        0        
C2        C        0.34375        0.185185        0.0921325        0        
C3        C        0.3125        0.203703        0.0921325        0        
C4        C        0.34375        0.148148        0.0921325        0        
C1        C        0.3125        0.24074099999999998        0.0921325        0        
C2        C        0.34375        0.296297        0.0921325        0        
C3        C        0.3125        0.314815        0.0921325        0        
C4        C        0.34375        0.259259        0.0921325        0        
C1        C        0.3125        0.351852        0.0921325        0        
C2        C        0.34375        0.407408        0.0921325        0        
C3        C        0.3125        0.42592500000000005        0.0921325        0        
C4        C        0.34375        0.37037        0.0921325        0        
C1        C        0.3125        0.46296300000000007        0.0921325        0        
C2        C        0.34375        0.518519        0.0921325        0        
C3        C        0.3125        0.537037        0.0921325        0        
C4        C        0.34375        0.481481        0.0921325        0        
C1        C        0.3125        0.574075        0.0921325        0        
C2        C        0.34375        0.62963        0.0921325        0        
C3        C        0.3125        0.648148        0.0921325        0        
C4        C        0.34375        0.592592        0.0921325        0        
C1        C        0.375        0.018519        0.0921325        0        
C2        C        0.40625        0.074075        0.0921325        0        
C3        C        0.375        0.092592        0.0921325        0        
C4        C        0.40625        0.037037        0.0921325        0        
C1        C        0.375        0.12963        0.0921325        0        
C2        C        0.40625        0.185185        0.0921325        0        
C3        C        0.375        0.203703        0.0921325        0        
C4        C        0.40625        0.148148        0.0921325        0        
C1        C        0.375        0.24074099999999998        0.0921325        0        
C2        C        0.40625        0.296297        0.0921325        0        
C3        C        0.375        0.314815        0.0921325        0        
C4        C        0.40625        0.259259        0.0921325        0        
C1        C        0.375        0.351852        0.0921325        0        
C2        C        0.40625        0.407408        0.0921325        0        
C3        C        0.375        0.42592500000000005        0.0921325        0        
C4        C        0.40625        0.37037        0.0921325        0        
C1        C        0.375        0.46296300000000007        0.0921325        0        
C2        C        0.40625        0.518519        0.0921325        0        
C3        C        0.375        0.537037        0.0921325        0        
C4        C        0.40625        0.481481        0.0921325        0        
C1        C        0.375        0.574075        0.0921325        0        
C2        C        0.40625        0.62963        0.0921325        0        
C3        C        0.375        0.648148        0.0921325        0        
C4        C        0.40625        0.592592        0.0921325        0        
C1        C        0.4375        0.018519        0.0921325        0        
C2        C        0.46875        0.074075        0.0921325        0        
C3        C        0.4375        0.092592        0.0921325        0        
C4        C        0.46875        0.037037        0.0921325        0        
C1        C        0.4375        0.12963        0.0921325        0        
C2        C        0.46875        0.185185        0.0921325        0        
C3        C        0.4375        0.203703        0.0921325        0        
C4        C        0.46875        0.148148        0.0921325        0        
C1        C        0.4375        0.24074099999999998        0.0921325        0        
C2        C        0.46875        0.296297        0.0921325        0        
C3        C        0.4375        0.314815        0.0921325        0        
C4        C        0.46875        0.259259        0.0921325        0        
C1        C        0.4375        0.351852        0.0921325        0        
C2        C        0.46875        0.407408        0.0921325        0        
C3        C        0.4375        0.42592500000000005        0.0921325        0        
C4        C        0.46875        0.37037        0.0921325        0        
C1        C        0.4375        0.46296300000000007        0.0921325        0        
C2        C        0.46875        0.518519        0.0921325        0        
C3        C        0.4375        0.537037        0.0921325        0        
C4        C        0.46875        0.481481        0.0921325        0        
C1        C        0.4375        0.574075        0.0921325        0        
C2        C        0.46875        0.62963        0.0921325        0        
C3        C        0.4375        0.648148        0.0921325        0        
C4        C        0.46875        0.592592        0.0921325        0        
C_FG        C        0.5        0.018519        0.0921325        0.08        
C2        C        0.53125        0.074075        0.0921325        0        
C3        C        0.5        0.092592        0.0921325        0        
C4        C        0.53125        0.037037        0.0921325        0        
C_FG        C        0.5        0.12963        0.0921325        0.08        
C2        C        0.53125        0.185185        0.0921325        0        
C3        C        0.5        0.203703        0.0921325        0        
C4        C        0.53125        0.148148        0.0921325        0        
C_FG        C        0.5        0.24074099999999998        0.0921325        0.08        
C2        C        0.53125        0.296297        0.0921325        0        
C3        C        0.5        0.314815        0.0921325        0        
C4        C        0.53125        0.259259        0.0921325        0        
C_FG        C        0.5        0.351852        0.0921325        0.08        
C2        C        0.53125        0.407408        0.0921325        0        
C3        C        0.5        0.42592500000000005        0.0921325        0        
C4        C        0.53125        0.37037        0.0921325        0        
C_FG        C        0.5        0.46296300000000007        0.0921325        0.08        
C2        C        0.53125        0.518519        0.0921325        0        
C3        C        0.5        0.537037        0.0921325        0        
C4        C        0.53125        0.481481        0.0921325        0        
C_FG        C        0.5        0.574075        0.0921325        0.08        
C2        C        0.53125        0.62963        0.0921325        0        
C3        C        0.5        0.648148        0.0921325        0        
C4        C        0.53125        0.592592        0.0921325        0        
C1        C        0.5625        0.018519        0.0921325        0        
C2        C        0.59375        0.074075        0.0921325        0        
C3        C        0.5625        0.092592        0.0921325        0        
C4        C        0.59375        0.037037        0.0921325        0        
C1        C        0.5625        0.12963        0.0921325        0        
C2        C        0.59375        0.185185        0.0921325        0        
C3        C        0.5625        0.203703        0.0921325        0        
C4        C        0.59375        0.148148        0.0921325        0        
C1        C        0.5625        0.24074099999999998        0.0921325        0        
C2        C        0.59375        0.296297        0.0921325        0        
C3        C        0.5625        0.314815        0.0921325        0        
C4        C        0.59375        0.259259        0.0921325        0        
C1        C        0.5625        0.351852        0.0921325        0        
C2        C        0.59375        0.407408        0.0921325        0        
C3        C        0.5625        0.42592500000000005        0.0921325        0        
C4        C        0.59375        0.37037        0.0921325        0        
C1        C        0.5625        0.46296300000000007        0.0921325        0        
C2        C        0.59375        0.518519        0.0921325        0        
C3        C        0.5625        0.537037        0.0921325        0        
C4        C        0.59375        0.481481        0.0921325        0        
C1        C        0.5625        0.574075        0.0921325        0        
C2        C        0.59375        0.62963        0.0921325        0        
C3        C        0.5625        0.648148        0.0921325        0        
C4        C        0.59375        0.592592        0.0921325        0        
C1        C        0.625        0.018519        0.0921325        0        
C2        C        0.65625        0.074075        0.0921325        0        
C3        C        0.625        0.092592        0.0921325        0        
C4        C        0.65625        0.037037        0.0921325        0        
C1        C        0.625        0.12963        0.0921325        0        
C2        C        0.65625        0.185185        0.0921325        0        
C3        C        0.625        0.203703        0.0921325        0        
C4        C        0.65625        0.148148        0.0921325        0        
C1        C        0.625        0.24074099999999998        0.0921325        0        
C2        C        0.65625        0.296297        0.0921325        0        
C3        C        0.625        0.314815        0.0921325        0        
C4        C        0.65625        0.259259        0.0921325        0        
C1        C        0.625        0.351852        0.0921325        0        
C2        C        0.65625        0.407408        0.0921325        0        
C3        C        0.625        0.42592500000000005        0.0921325        0        
C4        C        0.65625        0.37037        0.0921325        0        
C1        C        0.625        0.46296300000000007        0.0921325        0        
C2        C        0.65625        0.518519        0.0921325        0        
C3        C        0.625        0.537037        0.0921325        0        
C4        C        0.65625        0.481481        0.0921325        0        
C1        C        0.625        0.574075        0.0921325        0        
C2        C        0.65625        0.62963        0.0921325        0        
C3        C        0.625        0.648148        0.0921325        0        
C4        C        0.65625        0.592592        0.0921325        0        
C1        C        0.6875        0.018519        0.0921325        0        
C2        C        0.71875        0.074075        0.0921325        0        
C3        C        0.6875        0.092592        0.0921325        0        
C4        C        0.71875        0.037037        0.0921325        0        
C1        C        0.6875        0.12963        0.0921325        0        
C2        C        0.71875        0.185185        0.0921325        0        
C3        C        0.6875        0.203703        0.0921325        0        
C4        C        0.71875        0.148148        0.0921325        0        
C1        C        0.6875        0.24074099999999998        0.0921325        0        
C2        C        0.71875        0.296297        0.0921325        0        
C3        C        0.6875        0.314815        0.0921325        0        
C4        C        0.71875        0.259259        0.0921325        0        
C1        C        0.6875        0.351852        0.0921325        0        
C2        C        0.71875        0.407408        0.0921325        0        
C3        C        0.6875        0.42592500000000005        0.0921325        0        
C4        C        0.71875        0.37037        0.0921325        0        
C1        C        0.6875        0.46296300000000007        0.0921325        0        
C2        C        0.71875        0.518519        0.0921325        0        
C3        C        0.6875        0.537037        0.0921325        0        
C4        C        0.71875        0.481481        0.0921325        0        
C1        C        0.6875        0.574075        0.0921325        0        
C2        C        0.71875        0.62963        0.0921325        0        
C3        C        0.6875        0.648148        0.0921325        0        
C4        C        0.71875        0.592592        0.0921325        0        
C_FG        C        0.75        0.018519        0.0921325        0.08        
C2        C        0.78125        0.074075        0.0921325        0        
C3        C        0.75        0.092592        0.0921325        0        
C4        C        0.78125        0.037037        0.0921325        0        
C_FG        C        0.75        0.12963        0.0921325        0.08        
C2        C        0.78125        0.185185        0.0921325        0        
C3        C        0.75        0.203703        0.0921325        0        
C4        C        0.78125        0.148148        0.0921325        0        
C_FG        C        0.75        0.24074099999999998        0.0921325        0.08        
C2        C        0.78125        0.296297        0.0921325        0        
C3        C        0.75        0.314815        0.0921325        0        
C4        C        0.78125        0.259259        0.0921325        0        
C_FG        C        0.75        0.351852        0.0921325        0.08        
C2        C        0.78125        0.407408        0.0921325        0        
C3        C        0.75        0.42592500000000005        0.0921325        0        
C4        C        0.78125        0.37037        0.0921325        0        
C_FG        C        0.75        0.46296300000000007        0.0921325        0.08        
C2        C        0.78125        0.518519        0.0921325        0        
C3        C        0.75        0.537037        0.0921325        0        
C4        C        0.78125        0.481481        0.0921325        0        
C_FG        C        0.75        0.574075        0.0921325        0.08        
C2        C        0.78125        0.62963        0.0921325        0        
C3        C        0.75        0.648148        0.0921325        0        
C4        C        0.78125        0.592592        0.0921325        0        
C1        C        0.8125        0.018519        0.0921325        0        
C2        C        0.84375        0.074075        0.0921325        0        
C3        C        0.8125        0.092592        0.0921325        0        
C4        C        0.84375        0.037037        0.0921325        0        
C1        C        0.8125        0.12963        0.0921325        0        
C2        C        0.84375        0.185185        0.0921325        0        
C3        C        0.8125        0.203703        0.0921325        0        
C4        C        0.84375        0.148148        0.0921325        0        
C1        C        0.8125        0.24074099999999998        0.0921325        0        
C2        C        0.84375        0.296297        0.0921325        0        
C3        C        0.8125        0.314815        0.0921325        0        
C4        C        0.84375        0.259259        0.0921325        0        
C1        C        0.8125        0.351852        0.0921325        0        
C2        C        0.84375        0.407408        0.0921325        0        
C3        C        0.8125        0.42592500000000005        0.0921325        0        
C4        C        0.84375        0.37037        0.0921325        0        
C1        C        0.8125        0.46296300000000007        0.0921325        0        
C2        C        0.84375        0.518519        0.0921325        0        
C3        C        0.8125        0.537037        0.0921325        0        
C4        C        0.84375        0.481481        0.0921325        0        
C1        C        0.8125        0.574075        0.0921325        0        
C2        C        0.84375        0.62963        0.0921325        0        
C3        C        0.8125        0.648148        0.0921325        0        
C4        C        0.84375        0.592592        0.0921325        0        
C1        C        0.875        0.018519        0.0921325        0        
C2        C        0.9062500000000001        0.074075        0.0921325        0        
C3        C        0.875        0.092592        0.0921325        0        
C4        C        0.9062500000000001        0.037037        0.0921325        0        
C1        C        0.875        0.12963        0.0921325        0        
C2        C        0.9062500000000001        0.185185        0.0921325        0        
C3        C        0.875        0.203703        0.0921325        0        
C4        C        0.9062500000000001        0.148148        0.0921325        0        
C1        C        0.875        0.24074099999999998        0.0921325        0        
C2        C        0.9062500000000001        0.296297        0.0921325        0        
C3        C        0.875        0.314815        0.0921325        0        
C4        C        0.9062500000000001        0.259259        0.0921325        0        
C1        C        0.875        0.351852        0.0921325        0        
C2        C        0.9062500000000001        0.407408        0.0921325        0        
C3        C        0.875        0.42592500000000005        0.0921325        0        
C4        C        0.9062500000000001        0.37037        0.0921325        0        
C1        C        0.875        0.46296300000000007        0.0921325        0        
C2        C        0.9062500000000001        0.518519        0.0921325        0        
C3        C        0.875        0.537037        0.0921325        0        
C4        C        0.9062500000000001        0.481481        0.0921325        0        
C1        C        0.875        0.574075        0.0921325        0        
C2        C        0.9062500000000001        0.62963        0.0921325        0        
C3        C        0.875        0.648148        0.0921325        0        
C4        C        0.9062500000000001        0.592592        0.0921325        0        
C1        C        0.9375        0.018519        0.0921325        0        
C2        C        0.9687500000000001        0.074075        0.0921325        0        
C3        C        0.9375        0.092592        0.0921325        0        
C4        C        0.9687500000000001        0.037037        0.0921325        0        
C1        C        0.9375        0.12963        0.0921325        0        
C2        C        0.9687500000000001        0.185185        0.0921325        0        
C3        C        0.9375        0.203703        0.0921325        0        
C4        C        0.9687500000000001        0.148148        0.0921325        0        
C1        C        0.9375        0.24074099999999998        0.0921325        0        
C2        C        0.9687500000000001        0.296297        0.0921325        0        
C3        C        0.9375        0.314815        0.0921325        0        
C4        C        0.9687500000000001        0.259259        0.0921325        0        
C1        C        0.9375        0.351852        0.0921325        0        
C2        C        0.9687500000000001        0.407408        0.0921325        0        
C3        C        0.9375        0.42592500000000005        0.0921325        0        
C4        C        0.9687500000000001        0.37037        0.0921325        0        
C1        C        0.9375        0.46296300000000007        0.0921325        0        
C2        C        0.9687500000000001        0.518519        0.0921325        0        
C3        C        0.9375        0.537037        0.0921325        0        
C4        C        0.9687500000000001        0.481481        0.0921325        0        
C1        C        0.9375        0.574075        0.0921325        0        
C2        C        0.9687500000000001        0.62963        0.0921325        0        
C3        C        0.9375        0.648148        0.0921325        0        
C4        C        0.9687500000000001        0.592592        0.0921325        0        
C_FG        C        0.0        0.685186        0.0921325        0.08        
C1        C        0.0625        0.685186        0.0921325        0        
C1        C        0.125        0.685186        0.0921325        0        
C1        C        0.1875        0.685186        0.0921325        0        
C_FG        C        0.25        0.685186        0.0921325        0.08        
C1        C        0.3125        0.685186        0.0921325        0        
C1        C        0.375        0.685186        0.0921325        0        
C1        C        0.4375        0.685186        0.0921325        0        
C_FG        C        0.5        0.685186        0.0921325        0.08        
C1        C        0.5625        0.685186        0.0921325        0        
C1        C        0.625        0.685186        0.0921325        0        
C1        C        0.6875        0.685186        0.0921325        0        
C_FG        C        0.75        0.685186        0.0921325        0.08        
C1        C        0.8125        0.685186        0.0921325        0        
C1        C        0.875        0.685186        0.0921325        0        
C1        C        0.9375        0.685186        0.0921325        0        
C2        C        0.03125        0.740741        0.0921325        0        
C2        C        0.09375        0.740741        0.0921325        0        
C2        C        0.15625        0.740741        0.0921325        0        
C2        C        0.21875        0.740741        0.0921325        0        
C2        C        0.28125        0.740741        0.0921325        0        
C2        C        0.34375        0.740741        0.0921325        0        
C2        C        0.40625        0.740741        0.0921325        0        
C2        C        0.46875        0.740741        0.0921325        0        
C2        C        0.53125        0.740741        0.0921325        0        
C2        C        0.59375        0.740741        0.0921325        0        
C2        C        0.65625        0.740741        0.0921325        0        
C2        C        0.71875        0.740741        0.0921325        0        
C2        C        0.78125        0.740741        0.0921325        0        
C2        C        0.84375        0.740741        0.0921325        0        
C2        C        0.9062500000000001        0.740741        0.0921325        0        
C2        C        0.9687500000000001        0.740741        0.0921325        0        
C3        C        0.0        0.759259        0.0921325        0        
C3        C        0.0625        0.759259        0.0921325        0        
C3        C        0.125        0.759259        0.0921325        0        
C3        C        0.1875        0.759259        0.0921325        0        
C3        C        0.25        0.759259        0.0921325        0        
C3        C        0.3125        0.759259        0.0921325        0        
C3        C        0.375        0.759259        0.0921325        0        
C3        C        0.4375        0.759259        0.0921325        0        
C3        C        0.5        0.759259        0.0921325        0        
C3        C        0.5625        0.759259        0.0921325        0        
C3        C        0.625        0.759259        0.0921325        0        
C3        C        0.6875        0.759259        0.0921325        0        
C3        C        0.75        0.759259        0.0921325        0        
C3        C        0.8125        0.759259        0.0921325        0        
C3        C        0.875        0.759259        0.0921325        0        
C3        C        0.9375        0.759259        0.0921325        0        
C4        C        0.03125        0.703703        0.0921325        0        
C4        C        0.09375        0.703703        0.0921325        0        
C4        C        0.15625        0.703703        0.0921325        0        
C4        C        0.21875        0.703703        0.0921325        0        
C4        C        0.28125        0.703703        0.0921325        0        
C4        C        0.34375        0.703703        0.0921325        0        
C4        C        0.40625        0.703703        0.0921325        0        
C4        C        0.46875        0.703703        0.0921325        0        
C4        C        0.53125        0.703703        0.0921325        0        
C4        C        0.59375        0.703703        0.0921325        0        
C4        C        0.65625        0.703703        0.0921325        0        
C4        C        0.71875        0.703703        0.0921325        0        
C4        C        0.78125        0.703703        0.0921325        0        
C4        C        0.84375        0.703703        0.0921325        0        
C4        C        0.9062500000000001        0.703703        0.0921325        0        
C4        C        0.9687500000000001        0.703703        0.0921325        0        
C_FG        C        0.0        0.796297        0.0921325        0.08        
C1        C        0.0625        0.796297        0.0921325        0        
C1        C        0.125        0.796297        0.0921325        0        
C1        C        0.1875        0.796297        0.0921325        0        
C_FG        C        0.25        0.796297        0.0921325        0.08        
C1        C        0.3125        0.796297        0.0921325        0        
C1        C        0.375        0.796297        0.0921325        0        
C1        C        0.4375        0.796297        0.0921325        0        
C_FG        C        0.5        0.796297        0.0921325        0.08        
C1        C        0.5625        0.796297        0.0921325        0        
C1        C        0.625        0.796297        0.0921325        0        
C1        C        0.6875        0.796297        0.0921325        0        
C_FG        C        0.75        0.796297        0.0921325        0.08        
C1        C        0.8125        0.796297        0.0921325        0        
C1        C        0.875        0.796297        0.0921325        0        
C1        C        0.9375        0.796297        0.0921325        0        
C2        C        0.03125        0.851852        0.0921325        0        
C2        C        0.09375        0.851852        0.0921325        0        
C2        C        0.15625        0.851852        0.0921325        0        
C2        C        0.21875        0.851852        0.0921325        0        
C2        C        0.28125        0.851852        0.0921325        0        
C2        C        0.34375        0.851852        0.0921325        0        
C2        C        0.40625        0.851852        0.0921325        0        
C2        C        0.46875        0.851852        0.0921325        0        
C2        C        0.53125        0.851852        0.0921325        0        
C2        C        0.59375        0.851852        0.0921325        0        
C2        C        0.65625        0.851852        0.0921325        0        
C2        C        0.71875        0.851852        0.0921325        0        
C2        C        0.78125        0.851852        0.0921325        0        
C2        C        0.84375        0.851852        0.0921325        0        
C2        C        0.9062500000000001        0.851852        0.0921325        0        
C2        C        0.9687500000000001        0.851852        0.0921325        0        
C3        C        0.0        0.87037        0.0921325        0        
C3        C        0.0625        0.87037        0.0921325        0        
C3        C        0.125        0.87037        0.0921325        0        
C3        C        0.1875        0.87037        0.0921325        0        
C3        C        0.25        0.87037        0.0921325        0        
C3        C        0.3125        0.87037        0.0921325        0        
C3        C        0.375        0.87037        0.0921325        0        
C3        C        0.4375        0.87037        0.0921325        0        
C3        C        0.5        0.87037        0.0921325        0        
C3        C        0.5625        0.87037        0.0921325        0        
C3        C        0.625        0.87037        0.0921325        0        
C3        C        0.6875        0.87037        0.0921325        0        
C3        C        0.75        0.87037        0.0921325        0        
C3        C        0.8125        0.87037        0.0921325        0        
C3        C        0.875        0.87037        0.0921325        0        
C3        C        0.9375        0.87037        0.0921325        0        
C4        C        0.03125        0.814814        0.0921325        0        
C4        C        0.09375        0.814814        0.0921325        0        
C4        C        0.15625        0.814814        0.0921325        0        
C4        C        0.21875        0.814814        0.0921325        0        
C4        C        0.28125        0.814814        0.0921325        0        
C4        C        0.34375        0.814814        0.0921325        0        
C4        C        0.40625        0.814814        0.0921325        0        
C4        C        0.46875        0.814814        0.0921325        0        
C4        C        0.53125        0.814814        0.0921325        0        
C4        C        0.59375        0.814814        0.0921325        0        
C4        C        0.65625        0.814814        0.0921325        0        
C4        C        0.71875        0.814814        0.0921325        0        
C4        C        0.78125        0.814814        0.0921325        0        
C4        C        0.84375        0.814814        0.0921325        0        
C4        C        0.9062500000000001        0.814814        0.0921325        0        
C4        C        0.9687500000000001        0.814814        0.0921325        0        
C_FG        C        0.0        0.907408        0.0921325        0.08        
C1        C        0.0625        0.907408        0.0921325        0        
C1        C        0.125        0.907408        0.0921325        0        
C1        C        0.1875        0.907408        0.0921325        0        
C_FG        C        0.25        0.907408        0.0921325        0.08        
C1        C        0.3125        0.907408        0.0921325        0        
C1        C        0.375        0.907408        0.0921325        0        
C1        C        0.4375        0.907408        0.0921325        0        
C_FG        C        0.5        0.907408        0.0921325        0.08        
C1        C        0.5625        0.907408        0.0921325        0        
C1        C        0.625        0.907408        0.0921325        0        
C1        C        0.6875        0.907408        0.0921325        0        
C_FG        C        0.75        0.907408        0.0921325        0.08        
C1        C        0.8125        0.907408        0.0921325        0        
C1        C        0.875        0.907408        0.0921325        0        
C1        C        0.9375        0.907408        0.0921325        0        
C2        C        0.03125        0.962963        0.0921325        0        
C2        C        0.09375        0.962963        0.0921325        0        
C2        C        0.15625        0.962963        0.0921325        0        
C2        C        0.21875        0.962963        0.0921325        0        
C2        C        0.28125        0.962963        0.0921325        0        
C2        C        0.34375        0.962963        0.0921325        0        
C2        C        0.40625        0.962963        0.0921325        0        
C2        C        0.46875        0.962963        0.0921325        0        
C2        C        0.53125        0.962963        0.0921325        0        
C2        C        0.59375        0.962963        0.0921325        0        
C2        C        0.65625        0.962963        0.0921325        0        
C2        C        0.71875        0.962963        0.0921325        0        
C2        C        0.78125        0.962963        0.0921325        0        
C2        C        0.84375        0.962963        0.0921325        0        
C2        C        0.9062500000000001        0.962963        0.0921325        0        
C2        C        0.9687500000000001        0.962963        0.0921325        0        
C3        C        0.0        0.9814809999999999        0.0921325        0        
C3        C        0.0625        0.9814809999999999        0.0921325        0        
C3        C        0.125        0.9814809999999999        0.0921325        0        
C3        C        0.1875        0.9814809999999999        0.0921325        0        
C3        C        0.25        0.9814809999999999        0.0921325        0        
C3        C        0.3125        0.9814809999999999        0.0921325        0        
C3        C        0.375        0.9814809999999999        0.0921325        0        
C3        C        0.4375        0.9814809999999999        0.0921325        0        
C3        C        0.5        0.9814809999999999        0.0921325        0        
C3        C        0.5625        0.9814809999999999        0.0921325        0        
C3        C        0.625        0.9814809999999999        0.0921325        0        
C3        C        0.6875        0.9814809999999999        0.0921325        0        
C3        C        0.75        0.9814809999999999        0.0921325        0        
C3        C        0.8125        0.9814809999999999        0.0921325        0        
C3        C        0.875        0.9814809999999999        0.0921325        0        
C3        C        0.9375        0.9814809999999999        0.0921325        0        
C4        C        0.03125        0.925925        0.0921325        0        
C4        C        0.09375        0.925925        0.0921325        0        
C4        C        0.15625        0.925925        0.0921325        0        
C4        C        0.21875        0.925925        0.0921325        0        
C4        C        0.28125        0.925925        0.0921325        0        
C4        C        0.34375        0.925925        0.0921325        0        
C4        C        0.40625        0.925925        0.0921325        0        
C4        C        0.46875        0.925925        0.0921325        0        
C4        C        0.53125        0.925925        0.0921325        0        
C4        C        0.59375        0.925925        0.0921325        0        
C4        C        0.65625        0.925925        0.0921325        0        
C4        C        0.71875        0.925925        0.0921325        0        
C4        C        0.78125        0.925925        0.0921325        0        
C4        C        0.84375        0.925925        0.0921325        0        
C4        C        0.9062500000000001        0.925925        0.0921325        0        
C4        C        0.9687500000000001        0.925925        0.0921325        0        
C1        C        0.0        0.018519        0.2250695        0        
C2        C        0.03125        0.074075        0.2250695        0        
C3        C        0.0        0.092592        0.2250695        0        
C4        C        0.03125        0.037037        0.2250695        0        
C1        C        0.0        0.12963        0.2250695        0        
C2        C        0.03125        0.185185        0.2250695        0        
C3        C        0.0        0.203703        0.2250695        0        
C4        C        0.03125        0.148148        0.2250695        0        
C1        C        0.0        0.24074099999999998        0.2250695        0        
C2        C        0.03125        0.296297        0.2250695        0        
C3        C        0.0        0.314815        0.2250695        0        
C4        C        0.03125        0.259259        0.2250695        0        
C1        C        0.0        0.351852        0.2250695        0        
C2        C        0.03125        0.407408        0.2250695        0        
C3        C        0.0        0.42592500000000005        0.2250695        0        
C4        C        0.03125        0.37037        0.2250695        0        
C1        C        0.0        0.46296300000000007        0.2250695        0        
C2        C        0.03125        0.518519        0.2250695        0        
C3        C        0.0        0.537037        0.2250695        0        
C4        C        0.03125        0.481481        0.2250695        0        
C1        C        0.0        0.574075        0.2250695        0        
C2        C        0.03125        0.62963        0.2250695        0        
C3        C        0.0        0.648148        0.2250695        0        
C4        C        0.03125        0.592592        0.2250695        0        
C1        C        0.0625        0.018519        0.2250695        0        
C2        C        0.09375        0.074075        0.2250695        0        
C3        C        0.0625        0.092592        0.2250695        0        
C4        C        0.09375        0.037037        0.2250695        0        
C1        C        0.0625        0.12963        0.2250695        0        
C2        C        0.09375        0.185185        0.2250695        0        
C3        C        0.0625        0.203703        0.2250695        0        
C4        C        0.09375        0.148148        0.2250695        0        
C1        C        0.0625        0.24074099999999998        0.2250695        0        
C2        C        0.09375        0.296297        0.2250695        0        
C3        C        0.0625        0.314815        0.2250695        0        
C4        C        0.09375        0.259259        0.2250695        0        
C1        C        0.0625        0.351852        0.2250695        0        
C2        C        0.09375        0.407408        0.2250695        0        
C3        C        0.0625        0.42592500000000005        0.2250695        0        
C4        C        0.09375        0.37037        0.2250695        0        
C1        C        0.0625        0.46296300000000007        0.2250695        0        
C2        C        0.09375        0.518519        0.2250695        0        
C3        C        0.0625        0.537037        0.2250695        0        
C4        C        0.09375        0.481481        0.2250695        0        
C1        C        0.0625        0.574075        0.2250695        0        
C2        C        0.09375        0.62963        0.2250695        0        
C3        C        0.0625        0.648148        0.2250695        0        
C4        C        0.09375        0.592592        0.2250695        0        
C1        C        0.125        0.018519        0.2250695        0        
C2        C        0.15625        0.074075        0.2250695        0        
C3        C        0.125        0.092592        0.2250695        0        
C4        C        0.15625        0.037037        0.2250695        0        
C1        C        0.125        0.12963        0.2250695        0        
C2        C        0.15625        0.185185        0.2250695        0        
C3        C        0.125        0.203703        0.2250695        0        
C4        C        0.15625        0.148148        0.2250695        0        
C1        C        0.125        0.24074099999999998        0.2250695        0        
C2        C        0.15625        0.296297        0.2250695        0        
C3        C        0.125        0.314815        0.2250695        0        
C4        C        0.15625        0.259259        0.2250695        0        
C1        C        0.125        0.351852        0.2250695        0        
C2        C        0.15625        0.407408        0.2250695        0        
C3        C        0.125        0.42592500000000005        0.2250695        0        
C4        C        0.15625        0.37037        0.2250695        0        
C1        C        0.125        0.46296300000000007        0.2250695        0        
C2        C        0.15625        0.518519        0.2250695        0        
C3        C        0.125        0.537037        0.2250695        0        
C4        C        0.15625        0.481481        0.2250695        0        
C1        C        0.125        0.574075        0.2250695        0        
C2        C        0.15625        0.62963        0.2250695        0        
C3        C        0.125        0.648148        0.2250695        0        
C4        C        0.15625        0.592592        0.2250695        0        
C1        C        0.1875        0.018519        0.2250695        0        
C2        C        0.21875        0.074075        0.2250695        0        
C3        C        0.1875        0.092592        0.2250695        0        
C4        C        0.21875        0.037037        0.2250695        0        
C1        C        0.1875        0.12963        0.2250695        0        
C2        C        0.21875        0.185185        0.2250695        0        
C3        C        0.1875        0.203703        0.2250695        0        
C4        C        0.21875        0.148148        0.2250695        0        
C1        C        0.1875        0.24074099999999998        0.2250695        0        
C2        C        0.21875        0.296297        0.2250695        0        
C3        C        0.1875        0.314815        0.2250695        0        
C4        C        0.21875        0.259259        0.2250695        0        
C1        C        0.1875        0.351852        0.2250695        0        
C2        C        0.21875        0.407408        0.2250695        0        
C3        C        0.1875        0.42592500000000005        0.2250695        0        
C4        C        0.21875        0.37037        0.2250695        0        
C1        C        0.1875        0.46296300000000007        0.2250695        0        
C2        C        0.21875        0.518519        0.2250695        0        
C3        C        0.1875        0.537037        0.2250695        0        
C4        C        0.21875        0.481481        0.2250695        0        
C1        C        0.1875        0.574075        0.2250695        0        
C2        C        0.21875        0.62963        0.2250695        0        
C3        C        0.1875        0.648148        0.2250695        0        
C4        C        0.21875        0.592592        0.2250695        0        
C1        C        0.25        0.018519        0.2250695        0        
C2        C        0.28125        0.074075        0.2250695        0        
C3        C        0.25        0.092592        0.2250695        0        
C4        C        0.28125        0.037037        0.2250695        0        
C1        C        0.25        0.12963        0.2250695        0        
C2        C        0.28125        0.185185        0.2250695        0        
C3        C        0.25        0.203703        0.2250695        0        
C4        C        0.28125        0.148148        0.2250695        0        
C1        C        0.25        0.24074099999999998        0.2250695        0        
C2        C        0.28125        0.296297        0.2250695        0        
C3        C        0.25        0.314815        0.2250695        0        
C4        C        0.28125        0.259259        0.2250695        0        
C1        C        0.25        0.351852        0.2250695        0        
C2        C        0.28125        0.407408        0.2250695        0        
C3        C        0.25        0.42592500000000005        0.2250695        0        
C4        C        0.28125        0.37037        0.2250695        0        
C1        C        0.25        0.46296300000000007        0.2250695        0        
C2        C        0.28125        0.518519        0.2250695        0        
C3        C        0.25        0.537037        0.2250695        0        
C4        C        0.28125        0.481481        0.2250695        0        
C1        C        0.25        0.574075        0.2250695        0        
C2        C        0.28125        0.62963        0.2250695        0        
C3        C        0.25        0.648148        0.2250695        0        
C4        C        0.28125        0.592592        0.2250695        0        
C1        C        0.3125        0.018519        0.2250695        0        
C2        C        0.34375        0.074075        0.2250695        0        
C3        C        0.3125        0.092592        0.2250695        0        
C4        C        0.34375        0.037037        0.2250695        0        
C1        C        0.3125        0.12963        0.2250695        0        
C2        C        0.34375        0.185185        0.2250695        0        
C3        C        0.3125        0.203703        0.2250695        0        
C4        C        0.34375        0.148148        0.2250695        0        
C1        C        0.3125        0.24074099999999998        0.2250695        0        
C2        C        0.34375        0.296297        0.2250695        0        
C3        C        0.3125        0.314815        0.2250695        0        
C4        C        0.34375        0.259259        0.2250695        0        
C1        C        0.3125        0.351852        0.2250695        0        
C2        C        0.34375        0.407408        0.2250695        0        
C3        C        0.3125        0.42592500000000005        0.2250695        0        
C4        C        0.34375        0.37037        0.2250695        0        
C1        C        0.3125        0.46296300000000007        0.2250695        0        
C2        C        0.34375        0.518519        0.2250695        0        
C3        C        0.3125        0.537037        0.2250695        0        
C4        C        0.34375        0.481481        0.2250695        0        
C1        C        0.3125        0.574075        0.2250695        0        
C2        C        0.34375        0.62963        0.2250695        0        
C3        C        0.3125        0.648148        0.2250695        0        
C4        C        0.34375        0.592592        0.2250695        0        
C1        C        0.375        0.018519        0.2250695        0        
C2        C        0.40625        0.074075        0.2250695        0        
C3        C        0.375        0.092592        0.2250695        0        
C4        C        0.40625        0.037037        0.2250695        0        
C1        C        0.375        0.12963        0.2250695        0        
C2        C        0.40625        0.185185        0.2250695        0        
C3        C        0.375        0.203703        0.2250695        0        
C4        C        0.40625        0.148148        0.2250695        0        
C1        C        0.375        0.24074099999999998        0.2250695        0        
C2        C        0.40625        0.296297        0.2250695        0        
C3        C        0.375        0.314815        0.2250695        0        
C4        C        0.40625        0.259259        0.2250695        0        
C1        C        0.375        0.351852        0.2250695        0        
C2        C        0.40625        0.407408        0.2250695        0        
C3        C        0.375        0.42592500000000005        0.2250695        0        
C4        C        0.40625        0.37037        0.2250695        0        
C1        C        0.375        0.46296300000000007        0.2250695        0        
C2        C        0.40625        0.518519        0.2250695        0        
C3        C        0.375        0.537037        0.2250695        0        
C4        C        0.40625        0.481481        0.2250695        0        
C1        C        0.375        0.574075        0.2250695        0        
C2        C        0.40625        0.62963        0.2250695        0        
C3        C        0.375        0.648148        0.2250695        0        
C4        C        0.40625        0.592592        0.2250695        0        
C1        C        0.4375        0.018519        0.2250695        0        
C2        C        0.46875        0.074075        0.2250695        0        
C3        C        0.4375        0.092592        0.2250695        0        
C4        C        0.46875        0.037037        0.2250695        0        
C1        C        0.4375        0.12963        0.2250695        0        
C2        C        0.46875        0.185185        0.2250695        0        
C3        C        0.4375        0.203703        0.2250695        0        
C4        C        0.46875        0.148148        0.2250695        0        
C1        C        0.4375        0.24074099999999998        0.2250695        0        
C2        C        0.46875        0.296297        0.2250695        0        
C3        C        0.4375        0.314815        0.2250695        0        
C4        C        0.46875        0.259259        0.2250695        0        
C1        C        0.4375        0.351852        0.2250695        0        
C2        C        0.46875        0.407408        0.2250695        0        
C3        C        0.4375        0.42592500000000005        0.2250695        0        
C4        C        0.46875        0.37037        0.2250695        0        
C1        C        0.4375        0.46296300000000007        0.2250695        0        
C2        C        0.46875        0.518519        0.2250695        0        
C3        C        0.4375        0.537037        0.2250695        0        
C4        C        0.46875        0.481481        0.2250695        0        
C1        C        0.4375        0.574075        0.2250695        0        
C2        C        0.46875        0.62963        0.2250695        0        
C3        C        0.4375        0.648148        0.2250695        0        
C4        C        0.46875        0.592592        0.2250695        0        
C1        C        0.5        0.018519        0.2250695        0        
C2        C        0.53125        0.074075        0.2250695        0        
C3        C        0.5        0.092592        0.2250695        0        
C4        C        0.53125        0.037037        0.2250695        0        
C1        C        0.5        0.12963        0.2250695        0        
C2        C        0.53125        0.185185        0.2250695        0        
C3        C        0.5        0.203703        0.2250695        0        
C4        C        0.53125        0.148148        0.2250695        0        
C1        C        0.5        0.24074099999999998        0.2250695        0        
C2        C        0.53125        0.296297        0.2250695        0        
C3        C        0.5        0.314815        0.2250695        0        
C4        C        0.53125        0.259259        0.2250695        0        
C1        C        0.5        0.351852        0.2250695        0        
C2        C        0.53125        0.407408        0.2250695        0        
C3        C        0.5        0.42592500000000005        0.2250695        0        
C4        C        0.53125        0.37037        0.2250695        0        
C1        C        0.5        0.46296300000000007        0.2250695        0        
C2        C        0.53125        0.518519        0.2250695        0        
C3        C        0.5        0.537037        0.2250695        0        
C4        C        0.53125        0.481481        0.2250695        0        
C1        C        0.5        0.574075        0.2250695        0        
C2        C        0.53125        0.62963        0.2250695        0        
C3        C        0.5        0.648148        0.2250695        0        
C4        C        0.53125        0.592592        0.2250695        0        
C1        C        0.5625        0.018519        0.2250695        0        
C2        C        0.59375        0.074075        0.2250695        0        
C3        C        0.5625        0.092592        0.2250695        0        
C4        C        0.59375        0.037037        0.2250695        0        
C1        C        0.5625        0.12963        0.2250695        0        
C2        C        0.59375        0.185185        0.2250695        0        
C3        C        0.5625        0.203703        0.2250695        0        
C4        C        0.59375        0.148148        0.2250695        0        
C1        C        0.5625        0.24074099999999998        0.2250695        0        
C2        C        0.59375        0.296297        0.2250695        0        
C3        C        0.5625        0.314815        0.2250695        0        
C4        C        0.59375        0.259259        0.2250695        0        
C1        C        0.5625        0.351852        0.2250695        0        
C2        C        0.59375        0.407408        0.2250695        0        
C3        C        0.5625        0.42592500000000005        0.2250695        0        
C4        C        0.59375        0.37037        0.2250695        0        
C1        C        0.5625        0.46296300000000007        0.2250695        0        
C2        C        0.59375        0.518519        0.2250695        0        
C3        C        0.5625        0.537037        0.2250695        0        
C4        C        0.59375        0.481481        0.2250695        0        
C1        C        0.5625        0.574075        0.2250695        0        
C2        C        0.59375        0.62963        0.2250695        0        
C3        C        0.5625        0.648148        0.2250695        0        
C4        C        0.59375        0.592592        0.2250695        0        
C1        C        0.625        0.018519        0.2250695        0        
C2        C        0.65625        0.074075        0.2250695        0        
C3        C        0.625        0.092592        0.2250695        0        
C4        C        0.65625        0.037037        0.2250695        0        
C1        C        0.625        0.12963        0.2250695        0        
C2        C        0.65625        0.185185        0.2250695        0        
C3        C        0.625        0.203703        0.2250695        0        
C4        C        0.65625        0.148148        0.2250695        0        
C1        C        0.625        0.24074099999999998        0.2250695        0        
C2        C        0.65625        0.296297        0.2250695        0        
C3        C        0.625        0.314815        0.2250695        0        
C4        C        0.65625        0.259259        0.2250695        0        
C1        C        0.625        0.351852        0.2250695        0        
C2        C        0.65625        0.407408        0.2250695        0        
C3        C        0.625        0.42592500000000005        0.2250695        0        
C4        C        0.65625        0.37037        0.2250695        0        
C1        C        0.625        0.46296300000000007        0.2250695        0        
C2        C        0.65625        0.518519        0.2250695        0        
C3        C        0.625        0.537037        0.2250695        0        
C4        C        0.65625        0.481481        0.2250695        0        
C1        C        0.625        0.574075        0.2250695        0        
C2        C        0.65625        0.62963        0.2250695        0        
C3        C        0.625        0.648148        0.2250695        0        
C4        C        0.65625        0.592592        0.2250695        0        
C1        C        0.6875        0.018519        0.2250695        0        
C2        C        0.71875        0.074075        0.2250695        0        
C3        C        0.6875        0.092592        0.2250695        0        
C4        C        0.71875        0.037037        0.2250695        0        
C1        C        0.6875        0.12963        0.2250695        0        
C2        C        0.71875        0.185185        0.2250695        0        
C3        C        0.6875        0.203703        0.2250695        0        
C4        C        0.71875        0.148148        0.2250695        0        
C1        C        0.6875        0.24074099999999998        0.2250695        0        
C2        C        0.71875        0.296297        0.2250695        0        
C3        C        0.6875        0.314815        0.2250695        0        
C4        C        0.71875        0.259259        0.2250695        0        
C1        C        0.6875        0.351852        0.2250695        0        
C2        C        0.71875        0.407408        0.2250695        0        
C3        C        0.6875        0.42592500000000005        0.2250695        0        
C4        C        0.71875        0.37037        0.2250695        0        
C1        C        0.6875        0.46296300000000007        0.2250695        0        
C2        C        0.71875        0.518519        0.2250695        0        
C3        C        0.6875        0.537037        0.2250695        0        
C4        C        0.71875        0.481481        0.2250695        0        
C1        C        0.6875        0.574075        0.2250695        0        
C2        C        0.71875        0.62963        0.2250695        0        
C3        C        0.6875        0.648148        0.2250695        0        
C4        C        0.71875        0.592592        0.2250695        0        
C1        C        0.75        0.018519        0.2250695        0        
C2        C        0.78125        0.074075        0.2250695        0        
C3        C        0.75        0.092592        0.2250695        0        
C4        C        0.78125        0.037037        0.2250695        0        
C1        C        0.75        0.12963        0.2250695        0        
C2        C        0.78125        0.185185        0.2250695        0        
C3        C        0.75        0.203703        0.2250695        0        
C4        C        0.78125        0.148148        0.2250695        0        
C1        C        0.75        0.24074099999999998        0.2250695        0        
C2        C        0.78125        0.296297        0.2250695        0        
C3        C        0.75        0.314815        0.2250695        0        
C4        C        0.78125        0.259259        0.2250695        0        
C1        C        0.75        0.351852        0.2250695        0        
C2        C        0.78125        0.407408        0.2250695        0        
C3        C        0.75        0.42592500000000005        0.2250695        0        
C4        C        0.78125        0.37037        0.2250695        0        
C1        C        0.75        0.46296300000000007        0.2250695        0        
C2        C        0.78125        0.518519        0.2250695        0        
C3        C        0.75        0.537037        0.2250695        0        
C4        C        0.78125        0.481481        0.2250695        0        
C1        C        0.75        0.574075        0.2250695        0        
C2        C        0.78125        0.62963        0.2250695        0        
C3        C        0.75        0.648148        0.2250695        0        
C4        C        0.78125        0.592592        0.2250695        0        
C1        C        0.8125        0.018519        0.2250695        0        
C2        C        0.84375        0.074075        0.2250695        0        
C3        C        0.8125        0.092592        0.2250695        0        
C4        C        0.84375        0.037037        0.2250695        0        
C1        C        0.8125        0.12963        0.2250695        0        
C2        C        0.84375        0.185185        0.2250695        0        
C3        C        0.8125        0.203703        0.2250695        0        
C4        C        0.84375        0.148148        0.2250695        0        
C1        C        0.8125        0.24074099999999998        0.2250695        0        
C2        C        0.84375        0.296297        0.2250695        0        
C3        C        0.8125        0.314815        0.2250695        0        
C4        C        0.84375        0.259259        0.2250695        0        
C1        C        0.8125        0.351852        0.2250695        0        
C2        C        0.84375        0.407408        0.2250695        0        
C3        C        0.8125        0.42592500000000005        0.2250695        0        
C4        C        0.84375        0.37037        0.2250695        0        
C1        C        0.8125        0.46296300000000007        0.2250695        0        
C2        C        0.84375        0.518519        0.2250695        0        
C3        C        0.8125        0.537037        0.2250695        0        
C4        C        0.84375        0.481481        0.2250695        0        
C1        C        0.8125        0.574075        0.2250695        0        
C2        C        0.84375        0.62963        0.2250695        0        
C3        C        0.8125        0.648148        0.2250695        0        
C4        C        0.84375        0.592592        0.2250695        0        
C1        C        0.875        0.018519        0.2250695        0        
C2        C        0.9062500000000001        0.074075        0.2250695        0        
C3        C        0.875        0.092592        0.2250695        0        
C4        C        0.9062500000000001        0.037037        0.2250695        0        
C1        C        0.875        0.12963        0.2250695        0        
C2        C        0.9062500000000001        0.185185        0.2250695        0        
C3        C        0.875        0.203703        0.2250695        0        
C4        C        0.9062500000000001        0.148148        0.2250695        0        
C1        C        0.875        0.24074099999999998        0.2250695        0        
C2        C        0.9062500000000001        0.296297        0.2250695        0        
C3        C        0.875        0.314815        0.2250695        0        
C4        C        0.9062500000000001        0.259259        0.2250695        0        
C1        C        0.875        0.351852        0.2250695        0        
C2        C        0.9062500000000001        0.407408        0.2250695        0        
C3        C        0.875        0.42592500000000005        0.2250695        0        
C4        C        0.9062500000000001        0.37037        0.2250695        0        
C1        C        0.875        0.46296300000000007        0.2250695        0        
C2        C        0.9062500000000001        0.518519        0.2250695        0        
C3        C        0.875        0.537037        0.2250695        0        
C4        C        0.9062500000000001        0.481481        0.2250695        0        
C1        C        0.875        0.574075        0.2250695        0        
C2        C        0.9062500000000001        0.62963        0.2250695        0        
C3        C        0.875        0.648148        0.2250695        0        
C4        C        0.9062500000000001        0.592592        0.2250695        0        
C1        C        0.9375        0.018519        0.2250695        0        
C2        C        0.9687500000000001        0.074075        0.2250695        0        
C3        C        0.9375        0.092592        0.2250695        0        
C4        C        0.9687500000000001        0.037037        0.2250695        0        
C1        C        0.9375        0.12963        0.2250695        0        
C2        C        0.9687500000000001        0.185185        0.2250695        0        
C3        C        0.9375        0.203703        0.2250695        0        
C4        C        0.9687500000000001        0.148148        0.2250695        0        
C1        C        0.9375        0.24074099999999998        0.2250695        0        
C2        C        0.9687500000000001        0.296297        0.2250695        0        
C3        C        0.9375        0.314815        0.2250695        0        
C4        C        0.9687500000000001        0.259259        0.2250695        0        
C1        C        0.9375        0.351852        0.2250695        0        
C2        C        0.9687500000000001        0.407408        0.2250695        0        
C3        C        0.9375        0.42592500000000005        0.2250695        0        
C4        C        0.9687500000000001        0.37037        0.2250695        0        
C1        C        0.9375        0.46296300000000007        0.2250695        0        
C2        C        0.9687500000000001        0.518519        0.2250695        0        
C3        C        0.9375        0.537037        0.2250695        0        
C4        C        0.9687500000000001        0.481481        0.2250695        0        
C1        C        0.9375        0.574075        0.2250695        0        
C2        C        0.9687500000000001        0.62963        0.2250695        0        
C3        C        0.9375        0.648148        0.2250695        0        
C4        C        0.9687500000000001        0.592592        0.2250695        0        
C1        C        0.0        0.685186        0.2250695        0        
C1        C        0.0625        0.685186        0.2250695        0        
C1        C        0.125        0.685186        0.2250695        0        
C1        C        0.1875        0.685186        0.2250695        0        
C1        C        0.25        0.685186        0.2250695        0        
C1        C        0.3125        0.685186        0.2250695        0        
C1        C        0.375        0.685186        0.2250695        0        
C1        C        0.4375        0.685186        0.2250695        0        
C1        C        0.5        0.685186        0.2250695        0        
C1        C        0.5625        0.685186        0.2250695        0        
C1        C        0.625        0.685186        0.2250695        0        
C1        C        0.6875        0.685186        0.2250695        0        
C1        C        0.75        0.685186        0.2250695        0        
C1        C        0.8125        0.685186        0.2250695        0        
C1        C        0.875        0.685186        0.2250695        0        
C1        C        0.9375        0.685186        0.2250695        0        
C2        C        0.03125        0.740741        0.2250695        0        
C2        C        0.09375        0.740741        0.2250695        0        
C2        C        0.15625        0.740741        0.2250695        0        
C2        C        0.21875        0.740741        0.2250695        0        
C2        C        0.28125        0.740741        0.2250695        0        
C2        C        0.34375        0.740741        0.2250695        0        
C2        C        0.40625        0.740741        0.2250695        0        
C2        C        0.46875        0.740741        0.2250695        0        
C2        C        0.53125        0.740741        0.2250695        0        
C2        C        0.59375        0.740741        0.2250695        0        
C2        C        0.65625        0.740741        0.2250695        0        
C2        C        0.71875        0.740741        0.2250695        0        
C2        C        0.78125        0.740741        0.2250695        0        
C2        C        0.84375        0.740741        0.2250695        0        
C2        C        0.9062500000000001        0.740741        0.2250695        0        
C2        C        0.9687500000000001        0.740741        0.2250695        0        
C3        C        0.0        0.759259        0.2250695        0        
C3        C        0.0625        0.759259        0.2250695        0        
C3        C        0.125        0.759259        0.2250695        0        
C3        C        0.1875        0.759259        0.2250695        0        
C3        C        0.25        0.759259        0.2250695        0        
C3        C        0.3125        0.759259        0.2250695        0        
C3        C        0.375        0.759259        0.2250695        0        
C3        C        0.4375        0.759259        0.2250695        0        
C3        C        0.5        0.759259        0.2250695        0        
C3        C        0.5625        0.759259        0.2250695        0        
C3        C        0.625        0.759259        0.2250695        0        
C3        C        0.6875        0.759259        0.2250695        0        
C3        C        0.75        0.759259        0.2250695        0        
C3        C        0.8125        0.759259        0.2250695        0        
C3        C        0.875        0.759259        0.2250695        0        
C3        C        0.9375        0.759259        0.2250695        0        
C4        C        0.03125        0.703703        0.2250695        0        
C4        C        0.09375        0.703703        0.2250695        0        
C4        C        0.15625        0.703703        0.2250695        0        
C4        C        0.21875        0.703703        0.2250695        0        
C4        C        0.28125        0.703703        0.2250695        0        
C4        C        0.34375        0.703703        0.2250695        0        
C4        C        0.40625        0.703703        0.2250695        0        
C4        C        0.46875        0.703703        0.2250695        0        
C4        C        0.53125        0.703703        0.2250695        0        
C4        C        0.59375        0.703703        0.2250695        0        
C4        C        0.65625        0.703703        0.2250695        0        
C4        C        0.71875        0.703703        0.2250695        0        
C4        C        0.78125        0.703703        0.2250695        0        
C4        C        0.84375        0.703703        0.2250695        0        
C4        C        0.9062500000000001        0.703703        0.2250695        0        
C4        C        0.9687500000000001        0.703703        0.2250695        0        
C1        C        0.0        0.796297        0.2250695        0        
C1        C        0.0625        0.796297        0.2250695        0        
C1        C        0.125        0.796297        0.2250695        0        
C1        C        0.1875        0.796297        0.2250695        0        
C1        C        0.25        0.796297        0.2250695        0        
C1        C        0.3125        0.796297        0.2250695        0        
C1        C        0.375        0.796297        0.2250695        0        
C1        C        0.4375        0.796297        0.2250695        0        
C1        C        0.5        0.796297        0.2250695        0        
C1        C        0.5625        0.796297        0.2250695        0        
C1        C        0.625        0.796297        0.2250695        0        
C1        C        0.6875        0.796297        0.2250695        0        
C1        C        0.75        0.796297        0.2250695        0        
C1        C        0.8125        0.796297        0.2250695        0        
C1        C        0.875        0.796297        0.2250695        0        
C1        C        0.9375        0.796297        0.2250695        0        
C2        C        0.03125        0.851852        0.2250695        0        
C2        C        0.09375        0.851852        0.2250695        0        
C2        C        0.15625        0.851852        0.2250695        0        
C2        C        0.21875        0.851852        0.2250695        0        
C2        C        0.28125        0.851852        0.2250695        0        
C2        C        0.34375        0.851852        0.2250695        0        
C2        C        0.40625        0.851852        0.2250695        0        
C2        C        0.46875        0.851852        0.2250695        0        
C2        C        0.53125        0.851852        0.2250695        0        
C2        C        0.59375        0.851852        0.2250695        0        
C2        C        0.65625        0.851852        0.2250695        0        
C2        C        0.71875        0.851852        0.2250695        0        
C2        C        0.78125        0.851852        0.2250695        0        
C2        C        0.84375        0.851852        0.2250695        0        
C2        C        0.9062500000000001        0.851852        0.2250695        0        
C2        C        0.9687500000000001        0.851852        0.2250695        0        
C3        C        0.0        0.87037        0.2250695        0        
C3        C        0.0625        0.87037        0.2250695        0        
C3        C        0.125        0.87037        0.2250695        0        
C3        C        0.1875        0.87037        0.2250695        0        
C3        C        0.25        0.87037        0.2250695        0        
C3        C        0.3125        0.87037        0.2250695        0        
C3        C        0.375        0.87037        0.2250695        0        
C3        C        0.4375        0.87037        0.2250695        0        
C3        C        0.5        0.87037        0.2250695        0        
C3        C        0.5625        0.87037        0.2250695        0        
C3        C        0.625        0.87037        0.2250695        0        
C3        C        0.6875        0.87037        0.2250695        0        
C3        C        0.75        0.87037        0.2250695        0        
C3        C        0.8125        0.87037        0.2250695        0        
C3        C        0.875        0.87037        0.2250695        0        
C3        C        0.9375        0.87037        0.2250695        0        
C4        C        0.03125        0.814814        0.2250695        0        
C4        C        0.09375        0.814814        0.2250695        0        
C4        C        0.15625        0.814814        0.2250695        0        
C4        C        0.21875        0.814814        0.2250695        0        
C4        C        0.28125        0.814814        0.2250695        0        
C4        C        0.34375        0.814814        0.2250695        0        
C4        C        0.40625        0.814814        0.2250695        0        
C4        C        0.46875        0.814814        0.2250695        0        
C4        C        0.53125        0.814814        0.2250695        0        
C4        C        0.59375        0.814814        0.2250695        0        
C4        C        0.65625        0.814814        0.2250695        0        
C4        C        0.71875        0.814814        0.2250695        0        
C4        C        0.78125        0.814814        0.2250695        0        
C4        C        0.84375        0.814814        0.2250695        0        
C4        C        0.9062500000000001        0.814814        0.2250695        0        
C4        C        0.9687500000000001        0.814814        0.2250695        0        
C1        C        0.0        0.907408        0.2250695        0        
C1        C        0.0625        0.907408        0.2250695        0        
C1        C        0.125        0.907408        0.2250695        0        
C1        C        0.1875        0.907408        0.2250695        0        
C1        C        0.25        0.907408        0.2250695        0        
C1        C        0.3125        0.907408        0.2250695        0        
C1        C        0.375        0.907408        0.2250695        0        
C1        C        0.4375        0.907408        0.2250695        0        
C1        C        0.5        0.907408        0.2250695        0        
C1        C        0.5625        0.907408        0.2250695        0        
C1        C        0.625        0.907408        0.2250695        0        
C1        C        0.6875        0.907408        0.2250695        0        
C1        C        0.75        0.907408        0.2250695        0        
C1        C        0.8125        0.907408        0.2250695        0        
C1        C        0.875        0.907408        0.2250695        0        
C1        C        0.9375        0.907408        0.2250695        0        
C2        C        0.03125        0.962963        0.2250695        0        
C2        C        0.09375        0.962963        0.2250695        0        
C2        C        0.15625        0.962963        0.2250695        0        
C2        C        0.21875        0.962963        0.2250695        0        
C2        C        0.28125        0.962963        0.2250695        0        
C2        C        0.34375        0.962963        0.2250695        0        
C2        C        0.40625        0.962963        0.2250695        0        
C2        C        0.46875        0.962963        0.2250695        0        
C2        C        0.53125        0.962963        0.2250695        0        
C2        C        0.59375        0.962963        0.2250695        0        
C2        C        0.65625        0.962963        0.2250695        0        
C2        C        0.71875        0.962963        0.2250695        0        
C2        C        0.78125        0.962963        0.2250695        0        
C2        C        0.84375        0.962963        0.2250695        0        
C2        C        0.9062500000000001        0.962963        0.2250695        0        
C2        C        0.9687500000000001        0.962963        0.2250695        0        
C3        C        0.0        0.9814809999999999        0.2250695        0        
C3        C        0.0625        0.9814809999999999        0.2250695        0        
C3        C        0.125        0.9814809999999999        0.2250695        0        
C3        C        0.1875        0.9814809999999999        0.2250695        0        
C3        C        0.25        0.9814809999999999        0.2250695        0        
C3        C        0.3125        0.9814809999999999        0.2250695        0        
C3        C        0.375        0.9814809999999999        0.2250695        0        
C3        C        0.4375        0.9814809999999999        0.2250695        0        
C3        C        0.5        0.9814809999999999        0.2250695        0        
C3        C        0.5625        0.9814809999999999        0.2250695        0        
C3        C        0.625        0.9814809999999999        0.2250695        0        
C3        C        0.6875        0.9814809999999999        0.2250695        0        
C3        C        0.75        0.9814809999999999        0.2250695        0        
C3        C        0.8125        0.9814809999999999        0.2250695        0        
C3        C        0.875        0.9814809999999999        0.2250695        0        
C3        C        0.9375        0.9814809999999999        0.2250695        0        
C4        C        0.03125        0.925925        0.2250695        0        
C4        C        0.09375        0.925925        0.2250695        0        
C4        C        0.15625        0.925925        0.2250695        0        
C4        C        0.21875        0.925925        0.2250695        0        
C4        C        0.28125        0.925925        0.2250695        0        
C4        C        0.34375        0.925925        0.2250695        0        
C4        C        0.40625        0.925925        0.2250695        0        
C4        C        0.46875        0.925925        0.2250695        0        
C4        C        0.53125        0.925925        0.2250695        0        
C4        C        0.59375        0.925925        0.2250695        0        
C4        C        0.65625        0.925925        0.2250695        0        
C4        C        0.71875        0.925925        0.2250695        0        
C4        C        0.78125        0.925925        0.2250695        0        
C4        C        0.84375        0.925925        0.2250695        0        
C4        C        0.9062500000000001        0.925925        0.2250695        0        
C4        C        0.9687500000000001        0.925925        0.2250695        0        
C_FG        C        0.0        0.018519        0.35800550000000003        0.08        
C2        C        0.03125        0.074075        0.35800550000000003        0        
C3        C        0.0        0.092592        0.35800550000000003        0        
C4        C        0.03125        0.037037        0.35800550000000003        0        
C_FG        C        0.0        0.12963        0.35800550000000003        0.08        
C2        C        0.03125        0.185185        0.35800550000000003        0        
C3        C        0.0        0.203703        0.35800550000000003        0        
C4        C        0.03125        0.148148        0.35800550000000003        0        
C_FG        C        0.0        0.24074099999999998        0.35800550000000003        0.08        
C2        C        0.03125        0.296297        0.35800550000000003        0        
C3        C        0.0        0.314815        0.35800550000000003        0        
C4        C        0.03125        0.259259        0.35800550000000003        0        
C_FG        C        0.0        0.351852        0.35800550000000003        0.08        
C2        C        0.03125        0.407408        0.35800550000000003        0        
C3        C        0.0        0.42592500000000005        0.35800550000000003        0        
C4        C        0.03125        0.37037        0.35800550000000003        0        
C_FG        C        0.0        0.46296300000000007        0.35800550000000003        0.08        
C2        C        0.03125        0.518519        0.35800550000000003        0        
C3        C        0.0        0.537037        0.35800550000000003        0        
C4        C        0.03125        0.481481        0.35800550000000003        0        
C_FG        C        0.0        0.574075        0.35800550000000003        0.08        
C2        C        0.03125        0.62963        0.35800550000000003        0        
C3        C        0.0        0.648148        0.35800550000000003        0        
C4        C        0.03125        0.592592        0.35800550000000003        0        
C1        C        0.0625        0.018519        0.35800550000000003        0        
C2        C        0.09375        0.074075        0.35800550000000003        0        
C3        C        0.0625        0.092592        0.35800550000000003        0        
C4        C        0.09375        0.037037        0.35800550000000003        0        
C1        C        0.0625        0.12963        0.35800550000000003        0        
C2        C        0.09375        0.185185        0.35800550000000003        0        
C3        C        0.0625        0.203703        0.35800550000000003        0        
C4        C        0.09375        0.148148        0.35800550000000003        0        
C1        C        0.0625        0.24074099999999998        0.35800550000000003        0        
C2        C        0.09375        0.296297        0.35800550000000003        0        
C3        C        0.0625        0.314815        0.35800550000000003        0        
C4        C        0.09375        0.259259        0.35800550000000003        0        
C1        C        0.0625        0.351852        0.35800550000000003        0        
C2        C        0.09375        0.407408        0.35800550000000003        0        
C3        C        0.0625        0.42592500000000005        0.35800550000000003        0        
C4        C        0.09375        0.37037        0.35800550000000003        0        
C1        C        0.0625        0.46296300000000007        0.35800550000000003        0        
C2        C        0.09375        0.518519        0.35800550000000003        0        
C3        C        0.0625        0.537037        0.35800550000000003        0        
C4        C        0.09375        0.481481        0.35800550000000003        0        
C1        C        0.0625        0.574075        0.35800550000000003        0        
C2        C        0.09375        0.62963        0.35800550000000003        0        
C3        C        0.0625        0.648148        0.35800550000000003        0        
C4        C        0.09375        0.592592        0.35800550000000003        0        
C1        C        0.125        0.018519        0.35800550000000003        0        
C2        C        0.15625        0.074075        0.35800550000000003        0        
C3        C        0.125        0.092592        0.35800550000000003        0        
C4        C        0.15625        0.037037        0.35800550000000003        0        
C1        C        0.125        0.12963        0.35800550000000003        0        
C2        C        0.15625        0.185185        0.35800550000000003        0        
C3        C        0.125        0.203703        0.35800550000000003        0        
C4        C        0.15625        0.148148        0.35800550000000003        0        
C1        C        0.125        0.24074099999999998        0.35800550000000003        0        
C2        C        0.15625        0.296297        0.35800550000000003        0        
C3        C        0.125        0.314815        0.35800550000000003        0        
C4        C        0.15625        0.259259        0.35800550000000003        0        
C1        C        0.125        0.351852        0.35800550000000003        0        
C2        C        0.15625        0.407408        0.35800550000000003        0        
C3        C        0.125        0.42592500000000005        0.35800550000000003        0        
C4        C        0.15625        0.37037        0.35800550000000003        0        
C1        C        0.125        0.46296300000000007        0.35800550000000003        0        
C2        C        0.15625        0.518519        0.35800550000000003        0        
C3        C        0.125        0.537037        0.35800550000000003        0        
C4        C        0.15625        0.481481        0.35800550000000003        0        
C1        C        0.125        0.574075        0.35800550000000003        0        
C2        C        0.15625        0.62963        0.35800550000000003        0        
C3        C        0.125        0.648148        0.35800550000000003        0        
C4        C        0.15625        0.592592        0.35800550000000003        0        
C1        C        0.1875        0.018519        0.35800550000000003        0        
C2        C        0.21875        0.074075        0.35800550000000003        0        
C3        C        0.1875        0.092592        0.35800550000000003        0        
C4        C        0.21875        0.037037        0.35800550000000003        0        
C1        C        0.1875        0.12963        0.35800550000000003        0        
C2        C        0.21875        0.185185        0.35800550000000003        0        
C3        C        0.1875        0.203703        0.35800550000000003        0        
C4        C        0.21875        0.148148        0.35800550000000003        0        
C1        C        0.1875        0.24074099999999998        0.35800550000000003        0        
C2        C        0.21875        0.296297        0.35800550000000003        0        
C3        C        0.1875        0.314815        0.35800550000000003        0        
C4        C        0.21875        0.259259        0.35800550000000003        0        
C1        C        0.1875        0.351852        0.35800550000000003        0        
C2        C        0.21875        0.407408        0.35800550000000003        0        
C3        C        0.1875        0.42592500000000005        0.35800550000000003        0        
C4        C        0.21875        0.37037        0.35800550000000003        0        
C1        C        0.1875        0.46296300000000007        0.35800550000000003        0        
C2        C        0.21875        0.518519        0.35800550000000003        0        
C3        C        0.1875        0.537037        0.35800550000000003        0        
C4        C        0.21875        0.481481        0.35800550000000003        0        
C1        C        0.1875        0.574075        0.35800550000000003        0        
C2        C        0.21875        0.62963        0.35800550000000003        0        
C3        C        0.1875        0.648148        0.35800550000000003        0        
C4        C        0.21875        0.592592        0.35800550000000003        0        
C_FG        C        0.25        0.018519        0.35800550000000003        0.08        
C2        C        0.28125        0.074075        0.35800550000000003        0        
C3        C        0.25        0.092592        0.35800550000000003        0        
C4        C        0.28125        0.037037        0.35800550000000003        0        
C_FG        C        0.25        0.12963        0.35800550000000003        0.08        
C2        C        0.28125        0.185185        0.35800550000000003        0        
C3        C        0.25        0.203703        0.35800550000000003        0        
C4        C        0.28125        0.148148        0.35800550000000003        0        
C_FG        C        0.25        0.24074099999999998        0.35800550000000003        0.08        
C2        C        0.28125        0.296297        0.35800550000000003        0        
C3        C        0.25        0.314815        0.35800550000000003        0        
C4        C        0.28125        0.259259        0.35800550000000003        0        
C_FG        C        0.25        0.351852        0.35800550000000003        0.08        
C2        C        0.28125        0.407408        0.35800550000000003        0        
C3        C        0.25        0.42592500000000005        0.35800550000000003        0        
C4        C        0.28125        0.37037        0.35800550000000003        0        
C_FG        C        0.25        0.46296300000000007        0.35800550000000003        0.08        
C2        C        0.28125        0.518519        0.35800550000000003        0        
C3        C        0.25        0.537037        0.35800550000000003        0        
C4        C        0.28125        0.481481        0.35800550000000003        0        
C_FG        C        0.25        0.574075        0.35800550000000003        0.08        
C2        C        0.28125        0.62963        0.35800550000000003        0        
C3        C        0.25        0.648148        0.35800550000000003        0        
C4        C        0.28125        0.592592        0.35800550000000003        0        
C1        C        0.3125        0.018519        0.35800550000000003        0        
C2        C        0.34375        0.074075        0.35800550000000003        0        
C3        C        0.3125        0.092592        0.35800550000000003        0        
C4        C        0.34375        0.037037        0.35800550000000003        0        
C1        C        0.3125        0.12963        0.35800550000000003        0        
C2        C        0.34375        0.185185        0.35800550000000003        0        
C3        C        0.3125        0.203703        0.35800550000000003        0        
C4        C        0.34375        0.148148        0.35800550000000003        0        
C1        C        0.3125        0.24074099999999998        0.35800550000000003        0        
C2        C        0.34375        0.296297        0.35800550000000003        0        
C3        C        0.3125        0.314815        0.35800550000000003        0        
C4        C        0.34375        0.259259        0.35800550000000003        0        
C1        C        0.3125        0.351852        0.35800550000000003        0        
C2        C        0.34375        0.407408        0.35800550000000003        0        
C3        C        0.3125        0.42592500000000005        0.35800550000000003        0        
C4        C        0.34375        0.37037        0.35800550000000003        0        
C1        C        0.3125        0.46296300000000007        0.35800550000000003        0        
C2        C        0.34375        0.518519        0.35800550000000003        0        
C3        C        0.3125        0.537037        0.35800550000000003        0        
C4        C        0.34375        0.481481        0.35800550000000003        0        
C1        C        0.3125        0.574075        0.35800550000000003        0        
C2        C        0.34375        0.62963        0.35800550000000003        0        
C3        C        0.3125        0.648148        0.35800550000000003        0        
C4        C        0.34375        0.592592        0.35800550000000003        0        
C1        C        0.375        0.018519        0.35800550000000003        0        
C2        C        0.40625        0.074075        0.35800550000000003        0        
C3        C        0.375        0.092592        0.35800550000000003        0        
C4        C        0.40625        0.037037        0.35800550000000003        0        
C1        C        0.375        0.12963        0.35800550000000003        0        
C2        C        0.40625        0.185185        0.35800550000000003        0        
C3        C        0.375        0.203703        0.35800550000000003        0        
C4        C        0.40625        0.148148        0.35800550000000003        0        
C1        C        0.375        0.24074099999999998        0.35800550000000003        0        
C2        C        0.40625        0.296297        0.35800550000000003        0        
C3        C        0.375        0.314815        0.35800550000000003        0        
C4        C        0.40625        0.259259        0.35800550000000003        0        
C1        C        0.375        0.351852        0.35800550000000003        0        
C2        C        0.40625        0.407408        0.35800550000000003        0        
C3        C        0.375        0.42592500000000005        0.35800550000000003        0        
C4        C        0.40625        0.37037        0.35800550000000003        0        
C1        C        0.375        0.46296300000000007        0.35800550000000003        0        
C2        C        0.40625        0.518519        0.35800550000000003        0        
C3        C        0.375        0.537037        0.35800550000000003        0        
C4        C        0.40625        0.481481        0.35800550000000003        0        
C1        C        0.375        0.574075        0.35800550000000003        0        
C2        C        0.40625        0.62963        0.35800550000000003        0        
C3        C        0.375        0.648148        0.35800550000000003        0        
C4        C        0.40625        0.592592        0.35800550000000003        0        
C1        C        0.4375        0.018519        0.35800550000000003        0        
C2        C        0.46875        0.074075        0.35800550000000003        0        
C3        C        0.4375        0.092592        0.35800550000000003        0        
C4        C        0.46875        0.037037        0.35800550000000003        0        
C1        C        0.4375        0.12963        0.35800550000000003        0        
C2        C        0.46875        0.185185        0.35800550000000003        0        
C3        C        0.4375        0.203703        0.35800550000000003        0        
C4        C        0.46875        0.148148        0.35800550000000003        0        
C1        C        0.4375        0.24074099999999998        0.35800550000000003        0        
C2        C        0.46875        0.296297        0.35800550000000003        0        
C3        C        0.4375        0.314815        0.35800550000000003        0        
C4        C        0.46875        0.259259        0.35800550000000003        0        
C1        C        0.4375        0.351852        0.35800550000000003        0        
C2        C        0.46875        0.407408        0.35800550000000003        0        
C3        C        0.4375        0.42592500000000005        0.35800550000000003        0        
C4        C        0.46875        0.37037        0.35800550000000003        0        
C1        C        0.4375        0.46296300000000007        0.35800550000000003        0        
C2        C        0.46875        0.518519        0.35800550000000003        0        
C3        C        0.4375        0.537037        0.35800550000000003        0        
C4        C        0.46875        0.481481        0.35800550000000003        0        
C1        C        0.4375        0.574075        0.35800550000000003        0        
C2        C        0.46875        0.62963        0.35800550000000003        0        
C3        C        0.4375        0.648148        0.35800550000000003        0        
C4        C        0.46875        0.592592        0.35800550000000003        0        
C_FG        C        0.5        0.018519        0.35800550000000003        0.08        
C2        C        0.53125        0.074075        0.35800550000000003        0        
C3        C        0.5        0.092592        0.35800550000000003        0        
C4        C        0.53125        0.037037        0.35800550000000003        0        
C_FG        C        0.5        0.12963        0.35800550000000003        0.08        
C2        C        0.53125        0.185185        0.35800550000000003        0        
C3        C        0.5        0.203703        0.35800550000000003        0        
C4        C        0.53125        0.148148        0.35800550000000003        0        
C_FG        C        0.5        0.24074099999999998        0.35800550000000003        0.08        
C2        C        0.53125        0.296297        0.35800550000000003        0        
C3        C        0.5        0.314815        0.35800550000000003        0        
C4        C        0.53125        0.259259        0.35800550000000003        0        
C_FG        C        0.5        0.351852        0.35800550000000003        0.08        
C2        C        0.53125        0.407408        0.35800550000000003        0        
C3        C        0.5        0.42592500000000005        0.35800550000000003        0        
C4        C        0.53125        0.37037        0.35800550000000003        0        
C_FG        C        0.5        0.46296300000000007        0.35800550000000003        0.08        
C2        C        0.53125        0.518519        0.35800550000000003        0        
C3        C        0.5        0.537037        0.35800550000000003        0        
C4        C        0.53125        0.481481        0.35800550000000003        0        
C_FG        C        0.5        0.574075        0.35800550000000003        0.08        
C2        C        0.53125        0.62963        0.35800550000000003        0        
C3        C        0.5        0.648148        0.35800550000000003        0        
C4        C        0.53125        0.592592        0.35800550000000003        0        
C1        C        0.5625        0.018519        0.35800550000000003        0        
C2        C        0.59375        0.074075        0.35800550000000003        0        
C3        C        0.5625        0.092592        0.35800550000000003        0        
C4        C        0.59375        0.037037        0.35800550000000003        0        
C1        C        0.5625        0.12963        0.35800550000000003        0        
C2        C        0.59375        0.185185        0.35800550000000003        0        
C3        C        0.5625        0.203703        0.35800550000000003        0        
C4        C        0.59375        0.148148        0.35800550000000003        0        
C1        C        0.5625        0.24074099999999998        0.35800550000000003        0        
C2        C        0.59375        0.296297        0.35800550000000003        0        
C3        C        0.5625        0.314815        0.35800550000000003        0        
C4        C        0.59375        0.259259        0.35800550000000003        0        
C1        C        0.5625        0.351852        0.35800550000000003        0        
C2        C        0.59375        0.407408        0.35800550000000003        0        
C3        C        0.5625        0.42592500000000005        0.35800550000000003        0        
C4        C        0.59375        0.37037        0.35800550000000003        0        
C1        C        0.5625        0.46296300000000007        0.35800550000000003        0        
C2        C        0.59375        0.518519        0.35800550000000003        0        
C3        C        0.5625        0.537037        0.35800550000000003        0        
C4        C        0.59375        0.481481        0.35800550000000003        0        
C1        C        0.5625        0.574075        0.35800550000000003        0        
C2        C        0.59375        0.62963        0.35800550000000003        0        
C3        C        0.5625        0.648148        0.35800550000000003        0        
C4        C        0.59375        0.592592        0.35800550000000003        0        
C1        C        0.625        0.018519        0.35800550000000003        0        
C2        C        0.65625        0.074075        0.35800550000000003        0        
C3        C        0.625        0.092592        0.35800550000000003        0        
C4        C        0.65625        0.037037        0.35800550000000003        0        
C1        C        0.625        0.12963        0.35800550000000003        0        
C2        C        0.65625        0.185185        0.35800550000000003        0        
C3        C        0.625        0.203703        0.35800550000000003        0        
C4        C        0.65625        0.148148        0.35800550000000003        0        
C1        C        0.625        0.24074099999999998        0.35800550000000003        0        
C2        C        0.65625        0.296297        0.35800550000000003        0        
C3        C        0.625        0.314815        0.35800550000000003        0        
C4        C        0.65625        0.259259        0.35800550000000003        0        
C1        C        0.625        0.351852        0.35800550000000003        0        
C2        C        0.65625        0.407408        0.35800550000000003        0        
C3        C        0.625        0.42592500000000005        0.35800550000000003        0        
C4        C        0.65625        0.37037        0.35800550000000003        0        
C1        C        0.625        0.46296300000000007        0.35800550000000003        0        
C2        C        0.65625        0.518519        0.35800550000000003        0        
C3        C        0.625        0.537037        0.35800550000000003        0        
C4        C        0.65625        0.481481        0.35800550000000003        0        
C1        C        0.625        0.574075        0.35800550000000003        0        
C2        C        0.65625        0.62963        0.35800550000000003        0        
C3        C        0.625        0.648148        0.35800550000000003        0        
C4        C        0.65625        0.592592        0.35800550000000003        0        
C1        C        0.6875        0.018519        0.35800550000000003        0        
C2        C        0.71875        0.074075        0.35800550000000003        0        
C3        C        0.6875        0.092592        0.35800550000000003        0        
C4        C        0.71875        0.037037        0.35800550000000003        0        
C1        C        0.6875        0.12963        0.35800550000000003        0        
C2        C        0.71875        0.185185        0.35800550000000003        0        
C3        C        0.6875        0.203703        0.35800550000000003        0        
C4        C        0.71875        0.148148        0.35800550000000003        0        
C1        C        0.6875        0.24074099999999998        0.35800550000000003        0        
C2        C        0.71875        0.296297        0.35800550000000003        0        
C3        C        0.6875        0.314815        0.35800550000000003        0        
C4        C        0.71875        0.259259        0.35800550000000003        0        
C1        C        0.6875        0.351852        0.35800550000000003        0        
C2        C        0.71875        0.407408        0.35800550000000003        0        
C3        C        0.6875        0.42592500000000005        0.35800550000000003        0        
C4        C        0.71875        0.37037        0.35800550000000003        0        
C1        C        0.6875        0.46296300000000007        0.35800550000000003        0        
C2        C        0.71875        0.518519        0.35800550000000003        0        
C3        C        0.6875        0.537037        0.35800550000000003        0        
C4        C        0.71875        0.481481        0.35800550000000003        0        
C1        C        0.6875        0.574075        0.35800550000000003        0        
C2        C        0.71875        0.62963        0.35800550000000003        0        
C3        C        0.6875        0.648148        0.35800550000000003        0        
C4        C        0.71875        0.592592        0.35800550000000003        0        
C_FG        C        0.75        0.018519        0.35800550000000003        0.08        
C2        C        0.78125        0.074075        0.35800550000000003        0        
C3        C        0.75        0.092592        0.35800550000000003        0        
C4        C        0.78125        0.037037        0.35800550000000003        0        
C_FG        C        0.75        0.12963        0.35800550000000003        0.08        
C2        C        0.78125        0.185185        0.35800550000000003        0        
C3        C        0.75        0.203703        0.35800550000000003        0        
C4        C        0.78125        0.148148        0.35800550000000003        0        
C_FG        C        0.75        0.24074099999999998        0.35800550000000003        0.08        
C2        C        0.78125        0.296297        0.35800550000000003        0        
C3        C        0.75        0.314815        0.35800550000000003        0        
C4        C        0.78125        0.259259        0.35800550000000003        0        
C_FG        C        0.75        0.351852        0.35800550000000003        0.08        
C2        C        0.78125        0.407408        0.35800550000000003        0        
C3        C        0.75        0.42592500000000005        0.35800550000000003        0        
C4        C        0.78125        0.37037        0.35800550000000003        0        
C_FG        C        0.75        0.46296300000000007        0.35800550000000003        0.08        
C2        C        0.78125        0.518519        0.35800550000000003        0        
C3        C        0.75        0.537037        0.35800550000000003        0        
C4        C        0.78125        0.481481        0.35800550000000003        0        
C_FG        C        0.75        0.574075        0.35800550000000003        0.08        
C2        C        0.78125        0.62963        0.35800550000000003        0        
C3        C        0.75        0.648148        0.35800550000000003        0        
C4        C        0.78125        0.592592        0.35800550000000003        0        
C1        C        0.8125        0.018519        0.35800550000000003        0        
C2        C        0.84375        0.074075        0.35800550000000003        0        
C3        C        0.8125        0.092592        0.35800550000000003        0        
C4        C        0.84375        0.037037        0.35800550000000003        0        
C1        C        0.8125        0.12963        0.35800550000000003        0        
C2        C        0.84375        0.185185        0.35800550000000003        0        
C3        C        0.8125        0.203703        0.35800550000000003        0        
C4        C        0.84375        0.148148        0.35800550000000003        0        
C1        C        0.8125        0.24074099999999998        0.35800550000000003        0        
C2        C        0.84375        0.296297        0.35800550000000003        0        
C3        C        0.8125        0.314815        0.35800550000000003        0        
C4        C        0.84375        0.259259        0.35800550000000003        0        
C1        C        0.8125        0.351852        0.35800550000000003        0        
C2        C        0.84375        0.407408        0.35800550000000003        0        
C3        C        0.8125        0.42592500000000005        0.35800550000000003        0        
C4        C        0.84375        0.37037        0.35800550000000003        0        
C1        C        0.8125        0.46296300000000007        0.35800550000000003        0        
C2        C        0.84375        0.518519        0.35800550000000003        0        
C3        C        0.8125        0.537037        0.35800550000000003        0        
C4        C        0.84375        0.481481        0.35800550000000003        0        
C1        C        0.8125        0.574075        0.35800550000000003        0        
C2        C        0.84375        0.62963        0.35800550000000003        0        
C3        C        0.8125        0.648148        0.35800550000000003        0        
C4        C        0.84375        0.592592        0.35800550000000003        0        
C1        C        0.875        0.018519        0.35800550000000003        0        
C2        C        0.9062500000000001        0.074075        0.35800550000000003        0        
C3        C        0.875        0.092592        0.35800550000000003        0        
C4        C        0.9062500000000001        0.037037        0.35800550000000003        0        
C1        C        0.875        0.12963        0.35800550000000003        0        
C2        C        0.9062500000000001        0.185185        0.35800550000000003        0        
C3        C        0.875        0.203703        0.35800550000000003        0        
C4        C        0.9062500000000001        0.148148        0.35800550000000003        0        
C1        C        0.875        0.24074099999999998        0.35800550000000003        0        
C2        C        0.9062500000000001        0.296297        0.35800550000000003        0        
C3        C        0.875        0.314815        0.35800550000000003        0        
C4        C        0.9062500000000001        0.259259        0.35800550000000003        0        
C1        C        0.875        0.351852        0.35800550000000003        0        
C2        C        0.9062500000000001        0.407408        0.35800550000000003        0        
C3        C        0.875        0.42592500000000005        0.35800550000000003        0        
C4        C        0.9062500000000001        0.37037        0.35800550000000003        0        
C1        C        0.875        0.46296300000000007        0.35800550000000003        0        
C2        C        0.9062500000000001        0.518519        0.35800550000000003        0        
C3        C        0.875        0.537037        0.35800550000000003        0        
C4        C        0.9062500000000001        0.481481        0.35800550000000003        0        
C1        C        0.875        0.574075        0.35800550000000003        0        
C2        C        0.9062500000000001        0.62963        0.35800550000000003        0        
C3        C        0.875        0.648148        0.35800550000000003        0        
C4        C        0.9062500000000001        0.592592        0.35800550000000003        0        
C1        C        0.9375        0.018519        0.35800550000000003        0        
C2        C        0.9687500000000001        0.074075        0.35800550000000003        0        
C3        C        0.9375        0.092592        0.35800550000000003        0        
C4        C        0.9687500000000001        0.037037        0.35800550000000003        0        
C1        C        0.9375        0.12963        0.35800550000000003        0        
C2        C        0.9687500000000001        0.185185        0.35800550000000003        0        
C3        C        0.9375        0.203703        0.35800550000000003        0        
C4        C        0.9687500000000001        0.148148        0.35800550000000003        0        
C1        C        0.9375        0.24074099999999998        0.35800550000000003        0        
C2        C        0.9687500000000001        0.296297        0.35800550000000003        0        
C3        C        0.9375        0.314815        0.35800550000000003        0        
C4        C        0.9687500000000001        0.259259        0.35800550000000003        0        
C1        C        0.9375        0.351852        0.35800550000000003        0        
C2        C        0.9687500000000001        0.407408        0.35800550000000003        0        
C3        C        0.9375        0.42592500000000005        0.35800550000000003        0        
C4        C        0.9687500000000001        0.37037        0.35800550000000003        0        
C1        C        0.9375        0.46296300000000007        0.35800550000000003        0        
C2        C        0.9687500000000001        0.518519        0.35800550000000003        0        
C3        C        0.9375        0.537037        0.35800550000000003        0        
C4        C        0.9687500000000001        0.481481        0.35800550000000003        0        
C1        C        0.9375        0.574075        0.35800550000000003        0        
C2        C        0.9687500000000001        0.62963        0.35800550000000003        0        
C3        C        0.9375        0.648148        0.35800550000000003        0        
C4        C        0.9687500000000001        0.592592        0.35800550000000003        0        
C_FG        C        0.0        0.685186        0.35800550000000003        0.08        
C1        C        0.0625        0.685186        0.35800550000000003        0        
C1        C        0.125        0.685186        0.35800550000000003        0        
C1        C        0.1875        0.685186        0.35800550000000003        0        
C_FG        C        0.25        0.685186        0.35800550000000003        0.08        
C1        C        0.3125        0.685186        0.35800550000000003        0        
C1        C        0.375        0.685186        0.35800550000000003        0        
C1        C        0.4375        0.685186        0.35800550000000003        0        
C_FG        C        0.5        0.685186        0.35800550000000003        0.08        
C1        C        0.5625        0.685186        0.35800550000000003        0        
C1        C        0.625        0.685186        0.35800550000000003        0        
C1        C        0.6875        0.685186        0.35800550000000003        0        
C_FG        C        0.75        0.685186        0.35800550000000003        0.08        
C1        C        0.8125        0.685186        0.35800550000000003        0        
C1        C        0.875        0.685186        0.35800550000000003        0        
C1        C        0.9375        0.685186        0.35800550000000003        0        
C2        C        0.03125        0.740741        0.35800550000000003        0        
C2        C        0.09375        0.740741        0.35800550000000003        0        
C2        C        0.15625        0.740741        0.35800550000000003        0        
C2        C        0.21875        0.740741        0.35800550000000003        0        
C2        C        0.28125        0.740741        0.35800550000000003        0        
C2        C        0.34375        0.740741        0.35800550000000003        0        
C2        C        0.40625        0.740741        0.35800550000000003        0        
C2        C        0.46875        0.740741        0.35800550000000003        0        
C2        C        0.53125        0.740741        0.35800550000000003        0        
C2        C        0.59375        0.740741        0.35800550000000003        0        
C2        C        0.65625        0.740741        0.35800550000000003        0        
C2        C        0.71875        0.740741        0.35800550000000003        0        
C2        C        0.78125        0.740741        0.35800550000000003        0        
C2        C        0.84375        0.740741        0.35800550000000003        0        
C2        C        0.9062500000000001        0.740741        0.35800550000000003        0        
C2        C        0.9687500000000001        0.740741        0.35800550000000003        0        
C3        C        0.0        0.759259        0.35800550000000003        0        
C3        C        0.0625        0.759259        0.35800550000000003        0        
C3        C        0.125        0.759259        0.35800550000000003        0        
C3        C        0.1875        0.759259        0.35800550000000003        0        
C3        C        0.25        0.759259        0.35800550000000003        0        
C3        C        0.3125        0.759259        0.35800550000000003        0        
C3        C        0.375        0.759259        0.35800550000000003        0        
C3        C        0.4375        0.759259        0.35800550000000003        0        
C3        C        0.5        0.759259        0.35800550000000003        0        
C3        C        0.5625        0.759259        0.35800550000000003        0        
C3        C        0.625        0.759259        0.35800550000000003        0        
C3        C        0.6875        0.759259        0.35800550000000003        0        
C3        C        0.75        0.759259        0.35800550000000003        0        
C3        C        0.8125        0.759259        0.35800550000000003        0        
C3        C        0.875        0.759259        0.35800550000000003        0        
C3        C        0.9375        0.759259        0.35800550000000003        0        
C4        C        0.03125        0.703703        0.35800550000000003        0        
C4        C        0.09375        0.703703        0.35800550000000003        0        
C4        C        0.15625        0.703703        0.35800550000000003        0        
C4        C        0.21875        0.703703        0.35800550000000003        0        
C4        C        0.28125        0.703703        0.35800550000000003        0        
C4        C        0.34375        0.703703        0.35800550000000003        0        
C4        C        0.40625        0.703703        0.35800550000000003        0        
C4        C        0.46875        0.703703        0.35800550000000003        0        
C4        C        0.53125        0.703703        0.35800550000000003        0        
C4        C        0.59375        0.703703        0.35800550000000003        0        
C4        C        0.65625        0.703703        0.35800550000000003        0        
C4        C        0.71875        0.703703        0.35800550000000003        0        
C4        C        0.78125        0.703703        0.35800550000000003        0        
C4        C        0.84375        0.703703        0.35800550000000003        0        
C4        C        0.9062500000000001        0.703703        0.35800550000000003        0        
C4        C        0.9687500000000001        0.703703        0.35800550000000003        0        
C_FG        C        0.0        0.796297        0.35800550000000003        0.08        
C1        C        0.0625        0.796297        0.35800550000000003        0        
C1        C        0.125        0.796297        0.35800550000000003        0        
C1        C        0.1875        0.796297        0.35800550000000003        0        
C_FG        C        0.25        0.796297        0.35800550000000003        0.08        
C1        C        0.3125        0.796297        0.35800550000000003        0        
C1        C        0.375        0.796297        0.35800550000000003        0        
C1        C        0.4375        0.796297        0.35800550000000003        0        
C_FG        C        0.5        0.796297        0.35800550000000003        0.08        
C1        C        0.5625        0.796297        0.35800550000000003        0        
C1        C        0.625        0.796297        0.35800550000000003        0        
C1        C        0.6875        0.796297        0.35800550000000003        0        
C_FG        C        0.75        0.796297        0.35800550000000003        0.08        
C1        C        0.8125        0.796297        0.35800550000000003        0        
C1        C        0.875        0.796297        0.35800550000000003        0        
C1        C        0.9375        0.796297        0.35800550000000003        0        
C2        C        0.03125        0.851852        0.35800550000000003        0        
C2        C        0.09375        0.851852        0.35800550000000003        0        
C2        C        0.15625        0.851852        0.35800550000000003        0        
C2        C        0.21875        0.851852        0.35800550000000003        0        
C2        C        0.28125        0.851852        0.35800550000000003        0        
C2        C        0.34375        0.851852        0.35800550000000003        0        
C2        C        0.40625        0.851852        0.35800550000000003        0        
C2        C        0.46875        0.851852        0.35800550000000003        0        
C2        C        0.53125        0.851852        0.35800550000000003        0        
C2        C        0.59375        0.851852        0.35800550000000003        0        
C2        C        0.65625        0.851852        0.35800550000000003        0        
C2        C        0.71875        0.851852        0.35800550000000003        0        
C2        C        0.78125        0.851852        0.35800550000000003        0        
C2        C        0.84375        0.851852        0.35800550000000003        0        
C2        C        0.9062500000000001        0.851852        0.35800550000000003        0        
C2        C        0.9687500000000001        0.851852        0.35800550000000003        0        
C3        C        0.0        0.87037        0.35800550000000003        0        
C3        C        0.0625        0.87037        0.35800550000000003        0        
C3        C        0.125        0.87037        0.35800550000000003        0        
C3        C        0.1875        0.87037        0.35800550000000003        0        
C3        C        0.25        0.87037        0.35800550000000003        0        
C3        C        0.3125        0.87037        0.35800550000000003        0        
C3        C        0.375        0.87037        0.35800550000000003        0        
C3        C        0.4375        0.87037        0.35800550000000003        0        
C3        C        0.5        0.87037        0.35800550000000003        0        
C3        C        0.5625        0.87037        0.35800550000000003        0        
C3        C        0.625        0.87037        0.35800550000000003        0        
C3        C        0.6875        0.87037        0.35800550000000003        0        
C3        C        0.75        0.87037        0.35800550000000003        0        
C3        C        0.8125        0.87037        0.35800550000000003        0        
C3        C        0.875        0.87037        0.35800550000000003        0        
C3        C        0.9375        0.87037        0.35800550000000003        0        
C4        C        0.03125        0.814814        0.35800550000000003        0        
C4        C        0.09375        0.814814        0.35800550000000003        0        
C4        C        0.15625        0.814814        0.35800550000000003        0        
C4        C        0.21875        0.814814        0.35800550000000003        0        
C4        C        0.28125        0.814814        0.35800550000000003        0        
C4        C        0.34375        0.814814        0.35800550000000003        0        
C4        C        0.40625        0.814814        0.35800550000000003        0        
C4        C        0.46875        0.814814        0.35800550000000003        0        
C4        C        0.53125        0.814814        0.35800550000000003        0        
C4        C        0.59375        0.814814        0.35800550000000003        0        
C4        C        0.65625        0.814814        0.35800550000000003        0        
C4        C        0.71875        0.814814        0.35800550000000003        0        
C4        C        0.78125        0.814814        0.35800550000000003        0        
C4        C        0.84375        0.814814        0.35800550000000003        0        
C4        C        0.9062500000000001        0.814814        0.35800550000000003        0        
C4        C        0.9687500000000001        0.814814        0.35800550000000003        0        
C_FG        C        0.0        0.907408        0.35800550000000003        0.08        
C1        C        0.0625        0.907408        0.35800550000000003        0        
C1        C        0.125        0.907408        0.35800550000000003        0        
C1        C        0.1875        0.907408        0.35800550000000003        0        
C_FG        C        0.25        0.907408        0.35800550000000003        0.08        
C1        C        0.3125        0.907408        0.35800550000000003        0        
C1        C        0.375        0.907408        0.35800550000000003        0        
C1        C        0.4375        0.907408        0.35800550000000003        0        
C_FG        C        0.5        0.907408        0.35800550000000003        0.08        
C1        C        0.5625        0.907408        0.35800550000000003        0        
C1        C        0.625        0.907408        0.35800550000000003        0        
C1        C        0.6875        0.907408        0.35800550000000003        0        
C_FG        C        0.75        0.907408        0.35800550000000003        0.08        
C1        C        0.8125        0.907408        0.35800550000000003        0        
C1        C        0.875        0.907408        0.35800550000000003        0        
C1        C        0.9375        0.907408        0.35800550000000003        0        
C2        C        0.03125        0.962963        0.35800550000000003        0        
C2        C        0.09375        0.962963        0.35800550000000003        0        
C2        C        0.15625        0.962963        0.35800550000000003        0        
C2        C        0.21875        0.962963        0.35800550000000003        0        
C2        C        0.28125        0.962963        0.35800550000000003        0        
C2        C        0.34375        0.962963        0.35800550000000003        0        
C2        C        0.40625        0.962963        0.35800550000000003        0        
C2        C        0.46875        0.962963        0.35800550000000003        0        
C2        C        0.53125        0.962963        0.35800550000000003        0        
C2        C        0.59375        0.962963        0.35800550000000003        0        
C2        C        0.65625        0.962963        0.35800550000000003        0        
C2        C        0.71875        0.962963        0.35800550000000003        0        
C2        C        0.78125        0.962963        0.35800550000000003        0        
C2        C        0.84375        0.962963        0.35800550000000003        0        
C2        C        0.9062500000000001        0.962963        0.35800550000000003        0        
C2        C        0.9687500000000001        0.962963        0.35800550000000003        0        
C3        C        0.0        0.9814809999999999        0.35800550000000003        0        
C3        C        0.0625        0.9814809999999999        0.35800550000000003        0        
C3        C        0.125        0.9814809999999999        0.35800550000000003        0        
C3        C        0.1875        0.9814809999999999        0.35800550000000003        0        
C3        C        0.25        0.9814809999999999        0.35800550000000003        0        
C3        C        0.3125        0.9814809999999999        0.35800550000000003        0        
C3        C        0.375        0.9814809999999999        0.35800550000000003        0        
C3        C        0.4375        0.9814809999999999        0.35800550000000003        0        
C3        C        0.5        0.9814809999999999        0.35800550000000003        0        
C3        C        0.5625        0.9814809999999999        0.35800550000000003        0        
C3        C        0.625        0.9814809999999999        0.35800550000000003        0        
C3        C        0.6875        0.9814809999999999        0.35800550000000003        0        
C3        C        0.75        0.9814809999999999        0.35800550000000003        0        
C3        C        0.8125        0.9814809999999999        0.35800550000000003        0        
C3        C        0.875        0.9814809999999999        0.35800550000000003        0        
C3        C        0.9375        0.9814809999999999        0.35800550000000003        0        
C4        C        0.03125        0.925925        0.35800550000000003        0        
C4        C        0.09375        0.925925        0.35800550000000003        0        
C4        C        0.15625        0.925925        0.35800550000000003        0        
C4        C        0.21875        0.925925        0.35800550000000003        0        
C4        C        0.28125        0.925925        0.35800550000000003        0        
C4        C        0.34375        0.925925        0.35800550000000003        0        
C4        C        0.40625        0.925925        0.35800550000000003        0        
C4        C        0.46875        0.925925        0.35800550000000003        0        
C4        C        0.53125        0.925925        0.35800550000000003        0        
C4        C        0.59375        0.925925        0.35800550000000003        0        
C4        C        0.65625        0.925925        0.35800550000000003        0        
C4        C        0.71875        0.925925        0.35800550000000003        0        
C4        C        0.78125        0.925925        0.35800550000000003        0        
C4        C        0.84375        0.925925        0.35800550000000003        0        
C4        C        0.9062500000000001        0.925925        0.35800550000000003        0        
C4        C        0.9687500000000001        0.925925        0.35800550000000003        0        
C_COOH        C        0.0        0.018519        0.03181503968253968        0.55        
C_COOH        C        0.0        0.12963        0.03181503968253968        0.55        
C_COOH        C        0.0        0.24074099999999998        0.03181503968253968        0.55        
C_COOH        C        0.0        0.351852        0.03181503968253968        0.55        
C_COOH        C        0.0        0.46296300000000007        0.03181503968253968        0.55        
C_COOH        C        0.0        0.574075        0.03181503968253968        0.55        
C_COOH        C        0.25        0.018519        0.03181503968253968        0.55        
C_COOH        C        0.25        0.12963        0.03181503968253968        0.55        
C_COOH        C        0.25        0.24074099999999998        0.03181503968253968        0.55        
C_COOH        C        0.25        0.351852        0.03181503968253968        0.55        
C_COOH        C        0.25        0.46296300000000007        0.03181503968253968        0.55        
C_COOH        C        0.25        0.574075        0.03181503968253968        0.55        
C_COOH        C        0.5        0.018519        0.03181503968253968        0.55        
C_COOH        C        0.5        0.12963        0.03181503968253968        0.55        
C_COOH        C        0.5        0.24074099999999998        0.03181503968253968        0.55        
C_COOH        C        0.5        0.351852        0.03181503968253968        0.55        
C_COOH        C        0.5        0.46296300000000007        0.03181503968253968        0.55        
C_COOH        C        0.5        0.574075        0.03181503968253968        0.55        
C_COOH        C        0.75        0.018519        0.03181503968253968        0.55        
C_COOH        C        0.75        0.12963        0.03181503968253968        0.55        
C_COOH        C        0.75        0.24074099999999998        0.03181503968253968        0.55        
C_COOH        C        0.75        0.351852        0.03181503968253968        0.55        
C_COOH        C        0.75        0.46296300000000007        0.03181503968253968        0.55        
C_COOH        C        0.75        0.574075        0.03181503968253968        0.55        
C_COOH        C        0.0        0.685186        0.03181503968253968        0.55        
C_COOH        C        0.25        0.685186        0.03181503968253968        0.55        
C_COOH        C        0.5        0.685186        0.03181503968253968        0.55        
C_COOH        C        0.75        0.685186        0.03181503968253968        0.55        
C_COOH        C        0.0        0.796297        0.03181503968253968        0.55        
C_COOH        C        0.25        0.796297        0.03181503968253968        0.55        
C_COOH        C        0.5        0.796297        0.03181503968253968        0.55        
C_COOH        C        0.75        0.796297        0.03181503968253968        0.55        
C_COOH        C        0.0        0.907408        0.03181503968253968        0.55        
C_COOH        C        0.25        0.907408        0.03181503968253968        0.55        
C_COOH        C        0.5        0.907408        0.03181503968253968        0.55        
C_COOH        C        0.75        0.907408        0.03181503968253968        0.55        
C_COOH        C        0.0        0.018519        0.4183229761904762        0.55        
C_COOH        C        0.0        0.12963        0.4183229761904762        0.55        
C_COOH        C        0.0        0.24074099999999998        0.4183229761904762        0.55        
C_COOH        C        0.0        0.351852        0.4183229761904762        0.55        
C_COOH        C        0.0        0.46296300000000007        0.4183229761904762        0.55        
C_COOH        C        0.0        0.574075        0.4183229761904762        0.55        
C_COOH        C        0.25        0.018519        0.4183229761904762        0.55        
C_COOH        C        0.25        0.12963        0.4183229761904762        0.55        
C_COOH        C        0.25        0.24074099999999998        0.4183229761904762        0.55        
C_COOH        C        0.25        0.351852        0.4183229761904762        0.55        
C_COOH        C        0.25        0.46296300000000007        0.4183229761904762        0.55        
C_COOH        C        0.25        0.574075        0.4183229761904762        0.55        
C_COOH        C        0.5        0.018519        0.4183229761904762        0.55        
C_COOH        C        0.5        0.12963        0.4183229761904762        0.55        
C_COOH        C        0.5        0.24074099999999998        0.4183229761904762        0.55        
C_COOH        C        0.5        0.351852        0.4183229761904762        0.55        
C_COOH        C        0.5        0.46296300000000007        0.4183229761904762        0.55        
C_COOH        C        0.5        0.574075        0.4183229761904762        0.55        
C_COOH        C        0.75        0.018519        0.4183229761904762        0.55        
C_COOH        C        0.75        0.12963        0.4183229761904762        0.55        
C_COOH        C        0.75        0.24074099999999998        0.4183229761904762        0.55        
C_COOH        C        0.75        0.351852        0.4183229761904762        0.55        
C_COOH        C        0.75        0.46296300000000007        0.4183229761904762        0.55        
C_COOH        C        0.75        0.574075        0.4183229761904762        0.55        
C_COOH        C        0.0        0.685186        0.4183229761904762        0.55        
C_COOH        C        0.25        0.685186        0.4183229761904762        0.55        
C_COOH        C        0.5        0.685186        0.4183229761904762        0.55        
C_COOH        C        0.75        0.685186        0.4183229761904762        0.55        
C_COOH        C        0.0        0.796297        0.4183229761904762        0.55        
C_COOH        C        0.25        0.796297        0.4183229761904762        0.55        
C_COOH        C        0.5        0.796297        0.4183229761904762        0.55        
C_COOH        C        0.75        0.796297        0.4183229761904762        0.55        
C_COOH        C        0.0        0.907408        0.4183229761904762        0.55        
C_COOH        C        0.25        0.907408        0.4183229761904762        0.55        
C_COOH        C        0.5        0.907408        0.4183229761904762        0.55        
C_COOH        C        0.75        0.907408        0.4183229761904762        0.55        
O1_COOH        O        0.009864366062506352        0.04629124216225283        0.014550793650793648        -0.5        
O1_COOH        O        -0.013281747116203236        0.15585848921304768        0.014550793650793648        -0.5        
O1_COOH        O        0.01880046815672671        0.26313150885004805        0.014550793650793648        -0.5        
O1_COOH        O        -0.028775486828421466        0.35293685751561044        0.014550793650793648        -0.5        
O1_COOH        O        0.010929473517945022        0.4903117778353434        0.014550793650793648        -0.5        
O1_COOH        O        -0.007944975775972194        0.6024884391501487        0.014550793650793648        -0.5        
O1_COOH        O        0.24978280473937606        0.04807910422964644        0.014550793650793648        -0.5        
O1_COOH        O        0.22132595531822338        0.1323353522874012        0.014550793650793648        -0.5        
O1_COOH        O        0.2694546918504452        0.2625345329306575        0.014550793650793648        -0.5        
O1_COOH        O        0.23819270385601005        0.3788134669212296        0.014550793650793648        -0.5        
O1_COOH        O        0.2240672627437838        0.47581149389698474        0.014550793650793648        -0.5        
O1_COOH        O        0.25956433773806886        0.6019576268621611        0.014550793650793648        -0.5        
O1_COOH        O        0.49781570081588206        0.04799477097769772        0.014550793650793648        -0.5        
O1_COOH        O        0.5119054780498331        0.1565459248033098        0.014550793650793648        -0.5        
O1_COOH        O        0.5250614503893577        0.2552981245782146        0.014550793650793648        -0.5        
O1_COOH        O        0.5127861919004454        0.378338755952426        0.014550793650793648        -0.5        
O1_COOH        O        0.5199171417996146        0.48431174471692884        0.014550793650793648        -0.5        
O1_COOH        O        0.4747354425513064        0.5882572848431217        0.014550793650793648        -0.5        
O1_COOH        O        0.721651012001055        0.02370108635784701        0.014550793650793648        -0.5        
O1_COOH        O        0.7780382019359153        0.13636225172474625        0.014550793650793648        -0.5        
O1_COOH        O        0.7787930241646855        0.24107698225613428        0.014550793650793648        -0.5        
O1_COOH        O        0.7224120586490809        0.3603207581792128        0.014550793650793648        -0.5        
O1_COOH        O        0.7229888234996453        0.4732054887221514        0.014550793650793648        -0.5        
O1_COOH        O        0.7436603133732381        0.6029105836503041        0.014550793650793648        -0.5        
O1_COOH        O        0.0107472710241844        0.7126107725600549        0.014550793650793648        -0.5        
O1_COOH        O        0.23254802931260826        0.7086989104822634        0.014550793650793648        -0.5        
O1_COOH        O        0.47620500401851473        0.7018329323306568        0.014550793650793648        -0.5        
O1_COOH        O        0.7587838864604369        0.7133379598959573        0.014550793650793648        -0.5        
O1_COOH        O        -0.018454383862359265        0.8189889228102661        0.014550793650793648        -0.5        
O1_COOH        O        0.23992219303334816        0.8239883608822706        0.014550793650793648        -0.5        
O1_COOH        O        0.49616811138185696        0.8255950279463804        0.014550793650793648        -0.5        
O1_COOH        O        0.7221001349904427        0.8036099153601809        0.014550793650793648        -0.5        
O1_COOH        O        0.000683804433550567        0.9369606086885975        0.014550793650793648        -0.5        
O1_COOH        O        0.2701865477206399        0.9284883750630318        0.014550793650793648        -0.5        
O1_COOH        O        0.5000522792744719        0.9369688964475876        0.014550793650793648        -0.5        
O1_COOH        O        0.762500252725888        0.9340382170252175        0.014550793650793648        -0.5        
O1_COOH        O        0.023285625400367556        0.03590850324475382        0.4355872222222222        -0.5        
O1_COOH        O        -0.024049876873053218        0.14588632558139428        0.4355872222222222        -0.5        
O1_COOH        O        0.028753136144217126        0.24233224015052868        0.4355872222222222        -0.5        
O1_COOH        O        0.02189219534195615        0.37105463206744693        0.4355872222222222        -0.5        
O1_COOH        O        -0.023153697503835096        0.4805371796053447        0.4355872222222222        -0.5        
O1_COOH        O        0.02772586018736031        0.582054958358776        0.4355872222222222        -0.5        
O1_COOH        O        0.26472966170241174        0.043919566735271046        0.4355872222222222        -0.5        
O1_COOH        O        0.23913678621227993        0.1570065863474633        0.4355872222222222        -0.5        
O1_COOH        O        0.2608709708351604        0.268114340992428        0.4355872222222222        -0.5        
O1_COOH        O        0.25907214173977466        0.3799074494044744        0.4355872222222222        -0.5        
O1_COOH        O        0.22695779311704678        0.4806909408824089        0.4355872222222222        -0.5        
O1_COOH        O        0.27655904527739167        0.5854958244037426        0.4355872222222222        -0.5        
O1_COOH        O        0.5285762887771887        0.022154551221258846        0.4355872222222222        -0.5        
O1_COOH        O        0.47121435194538724        0.13037865823075662        0.4355872222222222        -0.5        
O1_COOH        O        0.471524977589916        0.2451348712289437        0.4355872222222222        -0.5        
O1_COOH        O        0.5182360995971482        0.3747291529302015        0.4355872222222222        -0.5        
O1_COOH        O        0.5277179000702109        0.4709720492207861        0.4355872222222222        -0.5        
O1_COOH        O        0.4788448502770275        0.5941294152701374        0.4355872222222222        -0.5        
O1_COOH        O        0.7356161263488685        0.044127566549318584        0.4355872222222222        -0.5        
O1_COOH        O        0.777959700940684        0.13669796384256117        0.4355872222222222        -0.5        
O1_COOH        O        0.7219824083284128        0.24756308387498854        0.4355872222222222        -0.5        
O1_COOH        O        0.7317170042453288        0.37468967028980843        0.4355872222222222        -0.5        
O1_COOH        O        0.7359301051124699        0.48875474747925357        0.4355872222222222        -0.5        
O1_COOH        O        0.7392017595496899        0.6014786636088675        0.4355872222222222        -0.5        
O1_COOH        O        0.022572858067892814        0.7035392986334883        0.4355872222222222        -0.5        
O1_COOH        O        0.2573698305604682        0.7137623305221669        0.4355872222222222        -0.5        
O1_COOH        O        0.504404559531311        0.7143990682754543        0.4355872222222222        -0.5        
O1_COOH        O        0.7704967053756852        0.7059485544532215        0.4355872222222222        -0.5        
O1_COOH        O        0.012901612829885663        0.8227247027896285        0.4355872222222222        -0.5        
O1_COOH        O        0.26197004388820533        0.8231827276491064        0.4355872222222222        -0.5        
O1_COOH        O        0.5213015924331531        0.8161873712962151        0.4355872222222222        -0.5        
O1_COOH        O        0.7213975374944427        0.7997087388586237        0.4355872222222222        -0.5        
O1_COOH        O        -0.009685814982364939        0.9352463969592972        0.4355872222222222        -0.5        
O1_COOH        O        0.22269225385788954        0.9167851361201984        0.4355872222222222        -0.5        
O1_COOH        O        0.5037840671819644        0.9367125778674179        0.4355872222222222        -0.5        
O1_COOH        O        0.7231548231793342        0.9181005548071953        0.4355872222222222        -0.5        
O2_COOH        O        -0.009604411760228205        -0.0085213640275363        0.0        -0.58        
O2_COOH        O        0.012931735034053262        0.10409270660936845        0.0        -0.58        
O2_COOH        O        -0.01830502196675202        0.21894054519588702        0.0        -0.58        
O2_COOH        O        0.028017170322951507        0.3507957315875062        0.0        -0.58        
O2_COOH        O        -0.010641450583209873        0.4363349408013433        0.0        -0.58        
O2_COOH        O        0.007735602905848305        0.5464103363619112        0.0        -0.58        
O2_COOH        O        0.2502114715433495        -0.010262110808113314        0.0        -0.58        
O2_COOH        O        0.27791840146745234        0.1269959414948684        0.0        -0.58        
O2_COOH        O        0.23105799500788635        0.21952178908976083        0.0        -0.58        
O2_COOH        O        0.2614961400685308        0.3256010449634158        0.0        -0.58        
O2_COOH        O        0.2752493353450457        0.4504531007217828        0.0        -0.58        
O2_COOH        O        0.2406877099584276        0.5469271602255955        0.0        -0.58        
O2_COOH        O        0.5021267366436795        -0.010179999978926517        0.0        -0.58        
O2_COOH        O        0.4884082654000877        0.10342338691607274        0.0        -0.58        
O2_COOH        O        0.475598990617065        0.22656749735338516        0.0        -0.58        
O2_COOH        O        0.48755076088224863        0.32606324593837926        0.0        -0.58        
O2_COOH        O        0.4806077319395681        0.44217685585995964        0.0        -0.58        
O2_COOH        O        0.5245987639894562        0.5602664589877279        0.0        -0.58        
O2_COOH        O        0.77760191095934        0.013473476461797276        0.0        -0.58        
O2_COOH        O        0.7227006850006804        0.1230751623927731        0.0        -0.58        
O2_COOH        O        0.7219657544998308        0.24041387183873789        0.0        -0.58        
O2_COOH        O        0.776860920070512        0.3436064178576141        0.0        -0.58        
O2_COOH        O        0.7762993546259059        0.4529904301953429        0.0        -0.58        
O2_COOH        O        0.7561726177240793        0.54599931657857        0.0        -0.58        
O2_COOH        O        -0.010464049647079894        0.6584839487553151        0.0        -0.58        
O2_COOH        O        0.2669920612685125        0.6622927220618062        0.0        -0.58        
O2_COOH        O        0.5231679296764756        0.6689777620214857        0.0        -0.58        
O2_COOH        O        0.741447594109287        0.6577759248887459        0.0        -0.58        
O2_COOH        O        0.01796805798490153        0.7742030743569227        0.0        -0.58        
O2_COOH        O        0.2598122278851468        0.7693353857990336        0.0        -0.58        
O2_COOH        O        0.503730907376589        0.7677710590143697        0.0        -0.58        
O2_COOH        O        0.7771646236472379        0.7891768009074464        0.0        -0.58        
O2_COOH        O        -0.0006657842279649303        0.8786341872039579        0.0        -0.58        
O2_COOH        O        0.2303454256362765        0.88688315320473        0.0        -0.58        
O2_COOH        O        0.4999490984341647        0.8786261178511575        0.0        -0.58        
O2_COOH        O        0.7378291647404822        0.8814795654758009        0.0        -0.58        
O2_COOH        O        -0.02267198246926522        0.0015877599780735967        0.45013801587301594        -0.58        
O2_COOH        O        0.023416093726443044        0.11380207516400995        0.45013801587301594        -0.58        
O2_COOH        O        -0.02799540864329961        0.23919169358555392        0.45013801587301594        -0.58        
O2_COOH        O        -0.02131527328438106        0.333155412293576        0.45013801587301594        -0.58        
O2_COOH        O        0.022543531250714576        0.4458519503685909        0.45013801587301594        -0.58        
O2_COOH        O        -0.02699520435054363        0.5663053364026125        0.45013801587301594        -0.58        
O2_COOH        O        0.23565850707664415        -0.006212189041732856        0.45013801587301594        -0.58        
O2_COOH        O        0.2605769369866777        0.10297486512317526        0.45013801587301594        -0.58        
O2_COOH        O        0.2394155103863021        0.21408902495380902        0.45013801587301594        -0.58        
O2_COOH        O        0.2411669351822686        0.3245358920523233        0.45013801587301594        -0.58        
O2_COOH        O        0.2724349787270584        0.4457022411416274        0.45013801587301594        -0.58        
O2_COOH        O        0.22414086164419958        0.5629551470343106        0.45013801587301594        -0.58        
O2_COOH        O        0.4721767782890274        0.014979255967477893        0.45013801587301594        -0.58        
O2_COOH        O        0.5280270637717258        0.12890107105815948        0.45013801587301594        -0.58        
O2_COOH        O        0.5277246240027192        0.23646291986420737        0.45013801587301594        -0.58        
O2_COOH        O        0.4822444738646447        0.3295777255812404        0.45013801587301594        -0.58        
O2_COOH        O        0.47301254599471715        0.4551650121681474        0.45013801587301594        -0.58        
O2_COOH        O        0.5205976509287289        0.554549076018214        0.45013801587301594        -0.58        
O2_COOH        O        0.7640048173777386        -0.0064147074648636246        0.45013801587301594        -0.58        
O2_COOH        O        0.7227771172698209        0.1227482972509118        0.45013801587301594        -0.58        
O2_COOH        O        0.7772792478744948        0.23409869757701432        0.45013801587301594        -0.58        
O2_COOH        O        0.7678011864447932        0.3296161677409608        0.45013801587301594        -0.58        
O2_COOH        O        0.7636991128539519        0.4378509389474281        0.45013801587301594        -0.58        
O2_COOH        O        0.760513675882825        0.547393501425172        0.45013801587301594        -0.58        
O2_COOH        O        -0.02197799859772715        0.6673163633586294        0.45013801587301594        -0.58        
O2_COOH        O        0.24282438558572056        0.6573627376441489        0.45013801587301594        -0.58        
O2_COOH        O        0.49571151322922413        0.6567427797545994        0.45013801587301594        -0.58        
O2_COOH        O        0.7300434415238899        0.6649705983310729        0.45013801587301594        -0.58        
O2_COOH        O        -0.012561618375076923        0.7705657428811789        0.45013801587301594        -0.58        
O2_COOH        O        0.23834540105650573        0.7701197882887629        0.45013801587301594        -0.58        
O2_COOH        O        0.47925976554598965        0.7769307969635187        0.45013801587301594        -0.58        
O2_COOH        O        0.777848705686624        0.7929751702332458        0.45013801587301594        -0.58        
O2_COOH        O        0.009430566012509073        0.8803032245438221        0.45013801587301594        -0.58        
O2_COOH        O        0.27658810880807605        0.8982779782774273        0.45013801587301594        -0.58        
O2_COOH        O        0.4963156538277617        0.878875681702514        0.45013801587301594        -0.58        
O2_COOH        O        0.7761377295132839        0.8969972246408565        0.45013801587301594        -0.58        
H_COOH        H        -0.016346883063271103        -0.027504190152763255        0.023165079365079368        0.45        
H_COOH        H        0.022010047641049076        0.08616506334060162        0.023165079365079368        0.45        
H_COOH        H        -0.03115547948498141        0.20363623041018664        0.023165079365079368        0.45        
H_COOH        H        0.047685732189199234        0.3500542119986605        0.023165079365079368        0.45        
H_COOH        H        -0.018111941954389577        0.4176415601462011        0.023165079365079368        0.45        
H_COOH        H        0.013166136488383733        0.5269892405837648        0.023165079365079368        0.45        
H_COOH        H        0.2503599284033884        -0.030466972754680976        0.023165079365079368        0.45        
H_COOH        H        0.2975176258052326        0.12514678463604542        0.023165079365079368        0.45        
H_COOH        H        0.2177603638494335        0.20462551806273618        0.023165079365079368        0.45        
H_COOH        H        0.2695666389645494        0.3071723982716341        0.023165079365079368        0.45        
H_COOH        H        0.2929748268415528        0.4416709244685092        0.023165079365079368        0.45        
H_COOH        H        0.23415031340167872        0.5278688841761959        0.023165079365079368        0.45        
H_COOH        H        0.5036197443517119        -0.03032721863371512        0.023165079365079368        0.45        
H_COOH        H        0.4802706574087222        0.085025869079527        0.023165079365079368        0.45        
H_COOH        H        0.45846903933665356        0.2166174413536898        0.023165079365079368        0.45        
H_COOH        H        0.47881116916214495        0.3079590727164705        0.023165079365079368        0.45        
H_COOH        H        0.4669940079382898        0.4275846055624978        0.023165079365079368        0.45        
H_COOH        H        0.5418675425913945        0.5505726126766318        0.023165079365079368        0.45        
H_COOH        H        0.7969789532185187        0.00993142739992417        0.023165079365079368        0.45        
H_COOH        H        0.7035360705952617        0.118473547471821        0.023165079365079368        0.45        
H_COOH        H        0.7022852055493909        0.24018422193463226        0.023165079365079368        0.45        
H_COOH        H        0.7957177732823586        0.337817869598767        0.023165079365079368        0.45        
H_COOH        H        0.7947619787074776        0.44598950526582953        0.023165079365079368        0.45        
H_COOH        H        0.7605059073526645        0.5262896774556207        0.023165079365079368        0.45        
H_COOH        H        -0.017810002342612388        0.6397386243414656        0.023165079365079368        0.45        
H_COOH        H        0.2789207965562809        0.6462212256095146        0.023165079365079368        0.45        
H_COOH        H        0.5394322366318911        0.6575992849037547        0.023165079365079368        0.45        
H_COOH        H        0.7354436500125859        0.6385335548752918        0.023165079365079368        0.45        
H_COOH        H        0.030581960674526613        0.7586927377179952        0.023165079365079368        0.45        
H_COOH        H        0.26670058987817197        0.7504078434807718        0.023165079365079368        0.45        
H_COOH        H        0.5063500720426781        0.7477453309125857        0.023165079365079368        0.45        
H_COOH        H        0.7962346822798667        0.784178291966764        0.023165079365079368        0.45        
H_COOH        H        -0.0011331768349396912        0.8584344485942679        0.023165079365079368        0.45        
H_COOH        H        0.216547557851214        0.8724743383838657        0.023165079365079368        0.45        
H_COOH        H        0.4999133646114703        0.858420714409404        0.023165079365079368        0.45        
H_COOH        H        0.7292850175797807        0.8632773340350192        0.023165079365079368        0.45        
H_COOH        H        -0.038588125487531676        -0.01029827769114621        0.4269729365079365        0.45        
H_COOH        H        0.03985461634723432        0.10269058477213536        0.4269729365079365        0.45        
H_COOH        H        -0.047648693415621966        0.2381040523744305        0.4269729365079365        0.45        
H_COOH        H        -0.03627898184085817        0.32003006852214305        0.4269729365079365        0.45        
H_COOH        H        0.03836949918314131        0.4338396830913309        0.4269729365079365        0.45        
H_COOH        H        -0.04594632756321547        0.560850891596673        0.4269729365079365        0.45        
H_COOH        H        0.22559051885492487        -0.023573932432881542        0.4269729365079365        0.45        
H_COOH        H        0.2680021386426584        0.0842624768507405        0.4269729365079365        0.45        
H_COOH        H        0.23198500664913016        0.1953788549398062        0.4269729365079365        0.45        
H_COOH        H        0.23496596342696593        0.30535948869249324        0.4269729365079365        0.45        
H_COOH        H        0.288184740818472        0.43358487527094997        0.4269729365079365        0.45        
H_COOH        H        0.2059872773708347        0.5551488085112488        0.4269729365079365        0.45        
H_COOH        H        0.4526443718670879        0.012494291437091016        0.4269729365079365        0.45        
H_COOH        H        0.5477025710185042        0.1283893497164455        0.4269729365079365        0.45        
H_COOH        H        0.5471878130446628        0.23345962999411396        0.4269729365079365        0.45        
H_COOH        H        0.4697797723892451        0.31394078082981913        0.4269729365079365        0.45        
H_COOH        H        0.4540668636650284        0.4496906832357429        0.4269729365079365        0.45        
H_COOH        H        0.5350575755721252        0.5408415231353021        0.4269729365079365        0.45        
H_COOH        H        0.7738364532583222        -0.023918622463226315        0.4269729365079365        0.45        
H_COOH        H        0.7036661597040059        0.11791721707024533        0.4269729365079365        0.45        
H_COOH        H        0.7964297747942198        0.22943568076857537        0.4269729365079365        0.45        
H_COOH        H        0.7802979422858071        0.3140062100830974        0.4269729365079365        0.45        
H_COOH        H        0.7733161386126146        0.42022181649472684        0.4269729365079365        0.45        
H_COOH        H        0.767894467096191        0.5286626053584373        0.4269729365079365        0.45        
H_COOH        H        -0.037406952347620454        0.6547715542377655        0.4269729365079365        0.45        
H_COOH        H        0.23778697408381816        0.6378303026887673        0.4269729365079365        0.45        
H_COOH        H        0.49270091771257074        0.6367751231132117        0.4269729365079365        0.45        
H_COOH        H        0.7160335754132067        0.6507790196029875        0.4269729365079365        0.45        
H_COOH        H        -0.021380102372655977        0.7525019335562497        0.4269729365079365        0.45        
H_COOH        H        0.23016366115543374        0.751742910749258        0.4269729365079365        0.45        
H_COOH        H        0.4646997446810342        0.7633353710819367        0.4269729365079365        0.45        
H_COOH        H        0.797399002321812        0.7906431854709224        0.4269729365079365        0.45        
H_COOH        H        0.01605099444666893        0.861275180427109        0.4269729365079365        0.45        
H_COOH        H        0.29525344356423355        0.8918685373874062        0.4269729365079365        0.45        
H_COOH        H        0.4937291759718599        0.8588454766121071        0.4269729365079365        0.45        
H_COOH        H        0.7944868898335227        0.8896886714619807        0.4269729365079365        0.45        
