data_graphite_ortho

_audit_creation_method RASPA-1.0
_audit_creation_date 2012-2-3
_audit_author_name 'David Dubbeldam'

_cell_length_a    22.14    
_cell_length_b    34.08    
_cell_length_c    22.2    
_cell_angle_alpha 90
_cell_angle_beta  90
_cell_angle_gamma 90
_cell_volume      16750.59      

_symmetry_cell_setting          triclinic
_symmetry_space_group_name_Hall 'P 1'
_symmetry_space_group_name_H-M  'P 1'
_symmetry_Int_Tables_number     1

_symmetry_equiv_pos_as_xyz 'x,y,z'

loop_
_atom_site_label
_atom_site_type_symbol
_atom_site_fract_x
_atom_site_fract_y
_atom_site_fract_z
_atom_site_charge
C1        C        0.0        0.020834        0.0        0        
C2        C        0.055556        0.083334        0.0        0        
C3        C        0.0        0.104166        0.0        0        
C4        C        0.055556        0.041666        0.0        0        
C1        C        0.0        0.145834        0.0        0        
C2        C        0.055556        0.208334        0.0        0        
C3        C        0.0        0.229166        0.0        0        
C4        C        0.055556        0.166666        0.0        0        
C1        C        0.0        0.270834        0.0        0        
C2        C        0.055556        0.333334        0.0        0        
C3        C        0.0        0.354166        0.0        0        
C4        C        0.055556        0.291666        0.0        0        
C1        C        0.0        0.395833        0.0        0        
C2        C        0.055556        0.458334        0.0        0        
C3        C        0.0        0.479166        0.0        0        
C4        C        0.055556        0.416666        0.0        0        
C1        C        0.0        0.520834        0.0        0        
C2        C        0.055556        0.583334        0.0        0        
C3        C        0.0        0.604166        0.0        0        
C4        C        0.055556        0.541666        0.0        0        
C1        C        0.0        0.645834        0.0        0        
C2        C        0.055556        0.708334        0.0        0        
C3        C        0.0        0.729166        0.0        0        
C4        C        0.055556        0.666666        0.0        0        
C1        C        0.111111        0.020834        0.0        0        
C2        C        0.166667        0.083334        0.0        0        
C3        C        0.111111        0.104166        0.0        0        
C4        C        0.166667        0.041666        0.0        0        
C1        C        0.111111        0.145834        0.0        0        
C2        C        0.166667        0.208334        0.0        0        
C3        C        0.111111        0.229166        0.0        0        
C4        C        0.166667        0.166666        0.0        0        
C1        C        0.111111        0.270834        0.0        0        
C2        C        0.166667        0.333334        0.0        0        
C3        C        0.111111        0.354166        0.0        0        
C4        C        0.166667        0.291666        0.0        0        
C1        C        0.111111        0.395833        0.0        0        
C2        C        0.166667        0.458334        0.0        0        
C3        C        0.111111        0.479166        0.0        0        
C4        C        0.166667        0.416666        0.0        0        
C1        C        0.111111        0.520834        0.0        0        
C2        C        0.166667        0.583334        0.0        0        
C3        C        0.111111        0.604166        0.0        0        
C4        C        0.166667        0.541666        0.0        0        
C1        C        0.111111        0.645834        0.0        0        
C2        C        0.166667        0.708334        0.0        0        
C3        C        0.111111        0.729166        0.0        0        
C4        C        0.166667        0.666666        0.0        0        
C1        C        0.222222        0.020834        0.0        0        
C2        C        0.277778        0.083334        0.0        0        
C3        C        0.222222        0.104166        0.0        0        
C4        C        0.277778        0.041666        0.0        0        
C1        C        0.222222        0.145834        0.0        0        
C2        C        0.277778        0.208334        0.0        0        
C3        C        0.222222        0.229166        0.0        0        
C4        C        0.277778        0.166666        0.0        0        
C1        C        0.222222        0.270834        0.0        0        
C2        C        0.277778        0.333334        0.0        0        
C3        C        0.222222        0.354166        0.0        0        
C4        C        0.277778        0.291666        0.0        0        
C1        C        0.222222        0.395833        0.0        0        
C2        C        0.277778        0.458334        0.0        0        
C3        C        0.222222        0.479166        0.0        0        
C4        C        0.277778        0.416666        0.0        0        
C1        C        0.222222        0.520834        0.0        0        
C2        C        0.277778        0.583334        0.0        0        
C3        C        0.222222        0.604166        0.0        0        
C4        C        0.277778        0.541666        0.0        0        
C1        C        0.222222        0.645834        0.0        0        
C2        C        0.277778        0.708334        0.0        0        
C3        C        0.222222        0.729166        0.0        0        
C4        C        0.277778        0.666666        0.0        0        
C1        C        0.333333        0.020834        0.0        0        
C2        C        0.388889        0.083334        0.0        0        
C3        C        0.333333        0.104166        0.0        0        
C4        C        0.388889        0.041666        0.0        0        
C1        C        0.333333        0.145834        0.0        0        
C2        C        0.388889        0.208334        0.0        0        
C3        C        0.333333        0.229166        0.0        0        
C4        C        0.388889        0.166666        0.0        0        
C1        C        0.333333        0.270834        0.0        0        
C2        C        0.388889        0.333334        0.0        0        
C3        C        0.333333        0.354166        0.0        0        
C4        C        0.388889        0.291666        0.0        0        
C1        C        0.333333        0.395833        0.0        0        
C2        C        0.388889        0.458334        0.0        0        
C3        C        0.333333        0.479166        0.0        0        
C4        C        0.388889        0.416666        0.0        0        
C1        C        0.333333        0.520834        0.0        0        
C2        C        0.388889        0.583334        0.0        0        
C3        C        0.333333        0.604166        0.0        0        
C4        C        0.388889        0.541666        0.0        0        
C1        C        0.333333        0.645834        0.0        0        
C2        C        0.388889        0.708334        0.0        0        
C3        C        0.333333        0.729166        0.0        0        
C4        C        0.388889        0.666666        0.0        0        
C1        C        0.444444        0.020834        0.0        0        
C2        C        0.5        0.083334        0.0        0        
C3        C        0.444444        0.104166        0.0        0        
C4        C        0.5        0.041666        0.0        0        
C1        C        0.444444        0.145834        0.0        0        
C2        C        0.5        0.208334        0.0        0        
C3        C        0.444444        0.229166        0.0        0        
C4        C        0.5        0.166666        0.0        0        
C1        C        0.444444        0.270834        0.0        0        
C2        C        0.5        0.333334        0.0        0        
C3        C        0.444444        0.354166        0.0        0        
C4        C        0.5        0.291666        0.0        0        
C1        C        0.444444        0.395833        0.0        0        
C2        C        0.5        0.458334        0.0        0        
C3        C        0.444444        0.479166        0.0        0        
C4        C        0.5        0.416666        0.0        0        
C1        C        0.444444        0.520834        0.0        0        
C2        C        0.5        0.583334        0.0        0        
C3        C        0.444444        0.604166        0.0        0        
C4        C        0.5        0.541666        0.0        0        
C1        C        0.444444        0.645834        0.0        0        
C2        C        0.5        0.708334        0.0        0        
C3        C        0.444444        0.729166        0.0        0        
C4        C        0.5        0.666666        0.0        0        
C1        C        0.555556        0.020834        0.0        0        
C2        C        0.611111        0.083334        0.0        0        
C3        C        0.555556        0.104166        0.0        0        
C4        C        0.611111        0.041666        0.0        0        
C1        C        0.555556        0.145834        0.0        0        
C2        C        0.611111        0.208334        0.0        0        
C3        C        0.555556        0.229166        0.0        0        
C4        C        0.611111        0.166666        0.0        0        
C1        C        0.555556        0.270834        0.0        0        
C2        C        0.611111        0.333334        0.0        0        
C3        C        0.555556        0.354166        0.0        0        
C4        C        0.611111        0.291666        0.0        0        
C1        C        0.555556        0.395833        0.0        0        
C2        C        0.611111        0.458334        0.0        0        
C3        C        0.555556        0.479166        0.0        0        
C4        C        0.611111        0.416666        0.0        0        
C1        C        0.555556        0.520834        0.0        0        
C2        C        0.611111        0.583334        0.0        0        
C3        C        0.555556        0.604166        0.0        0        
C4        C        0.611111        0.541666        0.0        0        
C1        C        0.555556        0.645834        0.0        0        
C2        C        0.611111        0.708334        0.0        0        
C3        C        0.555556        0.729166        0.0        0        
C4        C        0.611111        0.666666        0.0        0        
C1        C        0.666667        0.020834        0.0        0        
C2        C        0.722222        0.083334        0.0        0        
C3        C        0.666667        0.104166        0.0        0        
C4        C        0.722222        0.041666        0.0        0        
C1        C        0.666667        0.145834        0.0        0        
C2        C        0.722222        0.208334        0.0        0        
C3        C        0.666667        0.229166        0.0        0        
C4        C        0.722222        0.166666        0.0        0        
C1        C        0.666667        0.270834        0.0        0        
C2        C        0.722222        0.333334        0.0        0        
C3        C        0.666667        0.354166        0.0        0        
C4        C        0.722222        0.291666        0.0        0        
C1        C        0.666667        0.395833        0.0        0        
C2        C        0.722222        0.458334        0.0        0        
C3        C        0.666667        0.479166        0.0        0        
C4        C        0.722222        0.416666        0.0        0        
C1        C        0.666667        0.520834        0.0        0        
C2        C        0.722222        0.583334        0.0        0        
C3        C        0.666667        0.604166        0.0        0        
C4        C        0.722222        0.541666        0.0        0        
C1        C        0.666667        0.645834        0.0        0        
C2        C        0.722222        0.708334        0.0        0        
C3        C        0.666667        0.729166        0.0        0        
C4        C        0.722222        0.666666        0.0        0        
C1        C        0.777778        0.020834        0.0        0        
C2        C        0.833333        0.083334        0.0        0        
C3        C        0.777778        0.104166        0.0        0        
C4        C        0.833333        0.041666        0.0        0        
C1        C        0.777778        0.145834        0.0        0        
C2        C        0.833333        0.208334        0.0        0        
C3        C        0.777778        0.229166        0.0        0        
C4        C        0.833333        0.166666        0.0        0        
C1        C        0.777778        0.270834        0.0        0        
C2        C        0.833333        0.333334        0.0        0        
C3        C        0.777778        0.354166        0.0        0        
C4        C        0.833333        0.291666        0.0        0        
C1        C        0.777778        0.395833        0.0        0        
C2        C        0.833333        0.458334        0.0        0        
C3        C        0.777778        0.479166        0.0        0        
C4        C        0.833333        0.416666        0.0        0        
C1        C        0.777778        0.520834        0.0        0        
C2        C        0.833333        0.583334        0.0        0        
C3        C        0.777778        0.604166        0.0        0        
C4        C        0.833333        0.541666        0.0        0        
C1        C        0.777778        0.645834        0.0        0        
C2        C        0.833333        0.708334        0.0        0        
C3        C        0.777778        0.729166        0.0        0        
C4        C        0.833333        0.666666        0.0        0        
C1        C        0.888889        0.020834        0.0        0        
C2        C        0.944444        0.083334        0.0        0        
C3        C        0.888889        0.104166        0.0        0        
C4        C        0.944444        0.041666        0.0        0        
C1        C        0.888889        0.145834        0.0        0        
C2        C        0.944444        0.208334        0.0        0        
C3        C        0.888889        0.229166        0.0        0        
C4        C        0.944444        0.166666        0.0        0        
C1        C        0.888889        0.270834        0.0        0        
C2        C        0.944444        0.333334        0.0        0        
C3        C        0.888889        0.354166        0.0        0        
C4        C        0.944444        0.291666        0.0        0        
C1        C        0.888889        0.395833        0.0        0        
C2        C        0.944444        0.458334        0.0        0        
C3        C        0.888889        0.479166        0.0        0        
C4        C        0.944444        0.416666        0.0        0        
C1        C        0.888889        0.520834        0.0        0        
C2        C        0.944444        0.583334        0.0        0        
C3        C        0.888889        0.604166        0.0        0        
C4        C        0.944444        0.541666        0.0        0        
C1        C        0.888889        0.645834        0.0        0        
C2        C        0.944444        0.708334        0.0        0        
C3        C        0.888889        0.729166        0.0        0        
C4        C        0.944444        0.666666        0.0        0        
C1        C        0.0        0.770834        0.0        0        
C1        C        0.111111        0.770834        0.0        0        
C1        C        0.222222        0.770834        0.0        0        
C1        C        0.333333        0.770834        0.0        0        
C1        C        0.444444        0.770834        0.0        0        
C1        C        0.555556        0.770834        0.0        0        
C1        C        0.666667        0.770834        0.0        0        
C1        C        0.777778        0.770834        0.0        0        
C1        C        0.888889        0.770834        0.0        0        
C2        C        0.055556        0.833334        0.0        0        
C2        C        0.166667        0.833334        0.0        0        
C2        C        0.277778        0.833334        0.0        0        
C2        C        0.388889        0.833334        0.0        0        
C2        C        0.5        0.833334        0.0        0        
C2        C        0.611111        0.833334        0.0        0        
C2        C        0.722222        0.833334        0.0        0        
C2        C        0.833333        0.833334        0.0        0        
C2        C        0.944444        0.833334        0.0        0        
C3        C        0.0        0.854167        0.0        0        
C3        C        0.111111        0.854167        0.0        0        
C3        C        0.222222        0.854167        0.0        0        
C3        C        0.333333        0.854167        0.0        0        
C3        C        0.444444        0.854167        0.0        0        
C3        C        0.555556        0.854167        0.0        0        
C3        C        0.666667        0.854167        0.0        0        
C3        C        0.777778        0.854167        0.0        0        
C3        C        0.888889        0.854167        0.0        0        
C4        C        0.055556        0.791666        0.0        0        
C4        C        0.166667        0.791666        0.0        0        
C4        C        0.277778        0.791666        0.0        0        
C4        C        0.388889        0.791666        0.0        0        
C4        C        0.5        0.791666        0.0        0        
C4        C        0.611111        0.791666        0.0        0        
C4        C        0.722222        0.791666        0.0        0        
C4        C        0.833333        0.791666        0.0        0        
C4        C        0.944444        0.791666        0.0        0        
C1        C        0.0        0.895834        0.0        0        
C1        C        0.111111        0.895834        0.0        0        
C1        C        0.222222        0.895834        0.0        0        
C1        C        0.333333        0.895834        0.0        0        
C1        C        0.444444        0.895834        0.0        0        
C1        C        0.555556        0.895834        0.0        0        
C1        C        0.666667        0.895834        0.0        0        
C1        C        0.777778        0.895834        0.0        0        
C1        C        0.888889        0.895834        0.0        0        
C2        C        0.055556        0.958334        0.0        0        
C2        C        0.166667        0.958334        0.0        0        
C2        C        0.277778        0.958334        0.0        0        
C2        C        0.388889        0.958334        0.0        0        
C2        C        0.5        0.958334        0.0        0        
C2        C        0.611111        0.958334        0.0        0        
C2        C        0.722222        0.958334        0.0        0        
C2        C        0.833333        0.958334        0.0        0        
C2        C        0.944444        0.958334        0.0        0        
C3        C        0.0        0.979167        0.0        0        
C3        C        0.111111        0.979167        0.0        0        
C3        C        0.222222        0.979167        0.0        0        
C3        C        0.333333        0.979167        0.0        0        
C3        C        0.444444        0.979167        0.0        0        
C3        C        0.555556        0.979167        0.0        0        
C3        C        0.666667        0.979167        0.0        0        
C3        C        0.777778        0.979167        0.0        0        
C3        C        0.888889        0.979167        0.0        0        
C4        C        0.055556        0.916666        0.0        0        
C4        C        0.166667        0.916666        0.0        0        
C4        C        0.277778        0.916666        0.0        0        
C4        C        0.388889        0.916666        0.0        0        
C4        C        0.5        0.916666        0.0        0        
C4        C        0.611111        0.916666        0.0        0        
C4        C        0.722222        0.916666        0.0        0        
C4        C        0.833333        0.916666        0.0        0        
C4        C        0.944444        0.916666        0.0        0        
C1        C        0.0        0.020834        0.150901        0        
C2        C        0.055556        0.083334        0.150901        0        
C3        C        0.0        0.104166        0.150901        0        
C4        C        0.055556        0.041666        0.150901        0        
C1        C        0.0        0.145834        0.150901        0        
C2        C        0.055556        0.208334        0.150901        0        
C3        C        0.0        0.229166        0.150901        0        
C4        C        0.055556        0.166666        0.150901        0        
C1        C        0.0        0.270834        0.150901        0        
C2        C        0.055556        0.333334        0.150901        0        
C3        C        0.0        0.354166        0.150901        0        
C4        C        0.055556        0.291666        0.150901        0        
C1        C        0.0        0.395833        0.150901        0        
C2        C        0.055556        0.458334        0.150901        0        
C3        C        0.0        0.479166        0.150901        0        
C4        C        0.055556        0.416666        0.150901        0        
C1        C        0.0        0.520834        0.150901        0        
C2        C        0.055556        0.583334        0.150901        0        
C3        C        0.0        0.604166        0.150901        0        
C4        C        0.055556        0.541666        0.150901        0        
C1        C        0.0        0.645834        0.150901        0        
C2        C        0.055556        0.708334        0.150901        0        
C3        C        0.0        0.729166        0.150901        0        
C4        C        0.055556        0.666666        0.150901        0        
C1        C        0.111111        0.020834        0.150901        0        
C2        C        0.166667        0.083334        0.150901        0        
C3        C        0.111111        0.104166        0.150901        0        
C4        C        0.166667        0.041666        0.150901        0        
C1        C        0.111111        0.145834        0.150901        0        
C2        C        0.166667        0.208334        0.150901        0        
C3        C        0.111111        0.229166        0.150901        0        
C4        C        0.166667        0.166666        0.150901        0        
C1        C        0.111111        0.270834        0.150901        0        
C2        C        0.166667        0.333334        0.150901        0        
C3        C        0.111111        0.354166        0.150901        0        
C4        C        0.166667        0.291666        0.150901        0        
C1        C        0.111111        0.395833        0.150901        0        
C2        C        0.166667        0.458334        0.150901        0        
C3        C        0.111111        0.479166        0.150901        0        
C4        C        0.166667        0.416666        0.150901        0        
C1        C        0.111111        0.520834        0.150901        0        
C2        C        0.166667        0.583334        0.150901        0        
C3        C        0.111111        0.604166        0.150901        0        
C4        C        0.166667        0.541666        0.150901        0        
C1        C        0.111111        0.645834        0.150901        0        
C2        C        0.166667        0.708334        0.150901        0        
C3        C        0.111111        0.729166        0.150901        0        
C4        C        0.166667        0.666666        0.150901        0        
C1        C        0.222222        0.020834        0.150901        0        
C2        C        0.277778        0.083334        0.150901        0        
C3        C        0.222222        0.104166        0.150901        0        
C4        C        0.277778        0.041666        0.150901        0        
C1        C        0.222222        0.145834        0.150901        0        
C2        C        0.277778        0.208334        0.150901        0        
C3        C        0.222222        0.229166        0.150901        0        
C4        C        0.277778        0.166666        0.150901        0        
C1        C        0.222222        0.270834        0.150901        0        
C2        C        0.277778        0.333334        0.150901        0        
C3        C        0.222222        0.354166        0.150901        0        
C4        C        0.277778        0.291666        0.150901        0        
C1        C        0.222222        0.395833        0.150901        0        
C2        C        0.277778        0.458334        0.150901        0        
C3        C        0.222222        0.479166        0.150901        0        
C4        C        0.277778        0.416666        0.150901        0        
C1        C        0.222222        0.520834        0.150901        0        
C2        C        0.277778        0.583334        0.150901        0        
C3        C        0.222222        0.604166        0.150901        0        
C4        C        0.277778        0.541666        0.150901        0        
C1        C        0.222222        0.645834        0.150901        0        
C2        C        0.277778        0.708334        0.150901        0        
C3        C        0.222222        0.729166        0.150901        0        
C4        C        0.277778        0.666666        0.150901        0        
C1        C        0.333333        0.020834        0.150901        0        
C2        C        0.388889        0.083334        0.150901        0        
C3        C        0.333333        0.104166        0.150901        0        
C4        C        0.388889        0.041666        0.150901        0        
C1        C        0.333333        0.145834        0.150901        0        
C2        C        0.388889        0.208334        0.150901        0        
C3        C        0.333333        0.229166        0.150901        0        
C4        C        0.388889        0.166666        0.150901        0        
C1        C        0.333333        0.270834        0.150901        0        
C2        C        0.388889        0.333334        0.150901        0        
C3        C        0.333333        0.354166        0.150901        0        
C4        C        0.388889        0.291666        0.150901        0        
C1        C        0.333333        0.395833        0.150901        0        
C2        C        0.388889        0.458334        0.150901        0        
C3        C        0.333333        0.479166        0.150901        0        
C4        C        0.388889        0.416666        0.150901        0        
C1        C        0.333333        0.520834        0.150901        0        
C2        C        0.388889        0.583334        0.150901        0        
C3        C        0.333333        0.604166        0.150901        0        
C4        C        0.388889        0.541666        0.150901        0        
C1        C        0.333333        0.645834        0.150901        0        
C2        C        0.388889        0.708334        0.150901        0        
C3        C        0.333333        0.729166        0.150901        0        
C4        C        0.388889        0.666666        0.150901        0        
C1        C        0.444444        0.020834        0.150901        0        
C2        C        0.5        0.083334        0.150901        0        
C3        C        0.444444        0.104166        0.150901        0        
C4        C        0.5        0.041666        0.150901        0        
C1        C        0.444444        0.145834        0.150901        0        
C2        C        0.5        0.208334        0.150901        0        
C3        C        0.444444        0.229166        0.150901        0        
C4        C        0.5        0.166666        0.150901        0        
C1        C        0.444444        0.270834        0.150901        0        
C2        C        0.5        0.333334        0.150901        0        
C3        C        0.444444        0.354166        0.150901        0        
C4        C        0.5        0.291666        0.150901        0        
C1        C        0.444444        0.395833        0.150901        0        
C2        C        0.5        0.458334        0.150901        0        
C3        C        0.444444        0.479166        0.150901        0        
C4        C        0.5        0.416666        0.150901        0        
C1        C        0.444444        0.520834        0.150901        0        
C2        C        0.5        0.583334        0.150901        0        
C3        C        0.444444        0.604166        0.150901        0        
C4        C        0.5        0.541666        0.150901        0        
C1        C        0.444444        0.645834        0.150901        0        
C2        C        0.5        0.708334        0.150901        0        
C3        C        0.444444        0.729166        0.150901        0        
C4        C        0.5        0.666666        0.150901        0        
C1        C        0.555556        0.020834        0.150901        0        
C2        C        0.611111        0.083334        0.150901        0        
C3        C        0.555556        0.104166        0.150901        0        
C4        C        0.611111        0.041666        0.150901        0        
C1        C        0.555556        0.145834        0.150901        0        
C2        C        0.611111        0.208334        0.150901        0        
C3        C        0.555556        0.229166        0.150901        0        
C4        C        0.611111        0.166666        0.150901        0        
C1        C        0.555556        0.270834        0.150901        0        
C2        C        0.611111        0.333334        0.150901        0        
C3        C        0.555556        0.354166        0.150901        0        
C4        C        0.611111        0.291666        0.150901        0        
C1        C        0.555556        0.395833        0.150901        0        
C2        C        0.611111        0.458334        0.150901        0        
C3        C        0.555556        0.479166        0.150901        0        
C4        C        0.611111        0.416666        0.150901        0        
C1        C        0.555556        0.520834        0.150901        0        
C2        C        0.611111        0.583334        0.150901        0        
C3        C        0.555556        0.604166        0.150901        0        
C4        C        0.611111        0.541666        0.150901        0        
C1        C        0.555556        0.645834        0.150901        0        
C2        C        0.611111        0.708334        0.150901        0        
C3        C        0.555556        0.729166        0.150901        0        
C4        C        0.611111        0.666666        0.150901        0        
C1        C        0.666667        0.020834        0.150901        0        
C2        C        0.722222        0.083334        0.150901        0        
C3        C        0.666667        0.104166        0.150901        0        
C4        C        0.722222        0.041666        0.150901        0        
C1        C        0.666667        0.145834        0.150901        0        
C2        C        0.722222        0.208334        0.150901        0        
C3        C        0.666667        0.229166        0.150901        0        
C4        C        0.722222        0.166666        0.150901        0        
C1        C        0.666667        0.270834        0.150901        0        
C2        C        0.722222        0.333334        0.150901        0        
C3        C        0.666667        0.354166        0.150901        0        
C4        C        0.722222        0.291666        0.150901        0        
C1        C        0.666667        0.395833        0.150901        0        
C2        C        0.722222        0.458334        0.150901        0        
C3        C        0.666667        0.479166        0.150901        0        
C4        C        0.722222        0.416666        0.150901        0        
C1        C        0.666667        0.520834        0.150901        0        
C2        C        0.722222        0.583334        0.150901        0        
C3        C        0.666667        0.604166        0.150901        0        
C4        C        0.722222        0.541666        0.150901        0        
C1        C        0.666667        0.645834        0.150901        0        
C2        C        0.722222        0.708334        0.150901        0        
C3        C        0.666667        0.729166        0.150901        0        
C4        C        0.722222        0.666666        0.150901        0        
C1        C        0.777778        0.020834        0.150901        0        
C2        C        0.833333        0.083334        0.150901        0        
C3        C        0.777778        0.104166        0.150901        0        
C4        C        0.833333        0.041666        0.150901        0        
C1        C        0.777778        0.145834        0.150901        0        
C2        C        0.833333        0.208334        0.150901        0        
C3        C        0.777778        0.229166        0.150901        0        
C4        C        0.833333        0.166666        0.150901        0        
C1        C        0.777778        0.270834        0.150901        0        
C2        C        0.833333        0.333334        0.150901        0        
C3        C        0.777778        0.354166        0.150901        0        
C4        C        0.833333        0.291666        0.150901        0        
C1        C        0.777778        0.395833        0.150901        0        
C2        C        0.833333        0.458334        0.150901        0        
C3        C        0.777778        0.479166        0.150901        0        
C4        C        0.833333        0.416666        0.150901        0        
C1        C        0.777778        0.520834        0.150901        0        
C2        C        0.833333        0.583334        0.150901        0        
C3        C        0.777778        0.604166        0.150901        0        
C4        C        0.833333        0.541666        0.150901        0        
C1        C        0.777778        0.645834        0.150901        0        
C2        C        0.833333        0.708334        0.150901        0        
C3        C        0.777778        0.729166        0.150901        0        
C4        C        0.833333        0.666666        0.150901        0        
C1        C        0.888889        0.020834        0.150901        0        
C2        C        0.944444        0.083334        0.150901        0        
C3        C        0.888889        0.104166        0.150901        0        
C4        C        0.944444        0.041666        0.150901        0        
C1        C        0.888889        0.145834        0.150901        0        
C2        C        0.944444        0.208334        0.150901        0        
C3        C        0.888889        0.229166        0.150901        0        
C4        C        0.944444        0.166666        0.150901        0        
C1        C        0.888889        0.270834        0.150901        0        
C2        C        0.944444        0.333334        0.150901        0        
C3        C        0.888889        0.354166        0.150901        0        
C4        C        0.944444        0.291666        0.150901        0        
C1        C        0.888889        0.395833        0.150901        0        
C2        C        0.944444        0.458334        0.150901        0        
C3        C        0.888889        0.479166        0.150901        0        
C4        C        0.944444        0.416666        0.150901        0        
C1        C        0.888889        0.520834        0.150901        0        
C2        C        0.944444        0.583334        0.150901        0        
C3        C        0.888889        0.604166        0.150901        0        
C4        C        0.944444        0.541666        0.150901        0        
C1        C        0.888889        0.645834        0.150901        0        
C2        C        0.944444        0.708334        0.150901        0        
C3        C        0.888889        0.729166        0.150901        0        
C4        C        0.944444        0.666666        0.150901        0        
C1        C        0.0        0.770834        0.150901        0        
C1        C        0.111111        0.770834        0.150901        0        
C1        C        0.222222        0.770834        0.150901        0        
C1        C        0.333333        0.770834        0.150901        0        
C1        C        0.444444        0.770834        0.150901        0        
C1        C        0.555556        0.770834        0.150901        0        
C1        C        0.666667        0.770834        0.150901        0        
C1        C        0.777778        0.770834        0.150901        0        
C1        C        0.888889        0.770834        0.150901        0        
C2        C        0.055556        0.833334        0.150901        0        
C2        C        0.166667        0.833334        0.150901        0        
C2        C        0.277778        0.833334        0.150901        0        
C2        C        0.388889        0.833334        0.150901        0        
C2        C        0.5        0.833334        0.150901        0        
C2        C        0.611111        0.833334        0.150901        0        
C2        C        0.722222        0.833334        0.150901        0        
C2        C        0.833333        0.833334        0.150901        0        
C2        C        0.944444        0.833334        0.150901        0        
C3        C        0.0        0.854167        0.150901        0        
C3        C        0.111111        0.854167        0.150901        0        
C3        C        0.222222        0.854167        0.150901        0        
C3        C        0.333333        0.854167        0.150901        0        
C3        C        0.444444        0.854167        0.150901        0        
C3        C        0.555556        0.854167        0.150901        0        
C3        C        0.666667        0.854167        0.150901        0        
C3        C        0.777778        0.854167        0.150901        0        
C3        C        0.888889        0.854167        0.150901        0        
C4        C        0.055556        0.791666        0.150901        0        
C4        C        0.166667        0.791666        0.150901        0        
C4        C        0.277778        0.791666        0.150901        0        
C4        C        0.388889        0.791666        0.150901        0        
C4        C        0.5        0.791666        0.150901        0        
C4        C        0.611111        0.791666        0.150901        0        
C4        C        0.722222        0.791666        0.150901        0        
C4        C        0.833333        0.791666        0.150901        0        
C4        C        0.944444        0.791666        0.150901        0        
C1        C        0.0        0.895834        0.150901        0        
C1        C        0.111111        0.895834        0.150901        0        
C1        C        0.222222        0.895834        0.150901        0        
C1        C        0.333333        0.895834        0.150901        0        
C1        C        0.444444        0.895834        0.150901        0        
C1        C        0.555556        0.895834        0.150901        0        
C1        C        0.666667        0.895834        0.150901        0        
C1        C        0.777778        0.895834        0.150901        0        
C1        C        0.888889        0.895834        0.150901        0        
C2        C        0.055556        0.958334        0.150901        0        
C2        C        0.166667        0.958334        0.150901        0        
C2        C        0.277778        0.958334        0.150901        0        
C2        C        0.388889        0.958334        0.150901        0        
C2        C        0.5        0.958334        0.150901        0        
C2        C        0.611111        0.958334        0.150901        0        
C2        C        0.722222        0.958334        0.150901        0        
C2        C        0.833333        0.958334        0.150901        0        
C2        C        0.944444        0.958334        0.150901        0        
C3        C        0.0        0.979167        0.150901        0        
C3        C        0.111111        0.979167        0.150901        0        
C3        C        0.222222        0.979167        0.150901        0        
C3        C        0.333333        0.979167        0.150901        0        
C3        C        0.444444        0.979167        0.150901        0        
C3        C        0.555556        0.979167        0.150901        0        
C3        C        0.666667        0.979167        0.150901        0        
C3        C        0.777778        0.979167        0.150901        0        
C3        C        0.888889        0.979167        0.150901        0        
C4        C        0.055556        0.916666        0.150901        0        
C4        C        0.166667        0.916666        0.150901        0        
C4        C        0.277778        0.916666        0.150901        0        
C4        C        0.388889        0.916666        0.150901        0        
C4        C        0.5        0.916666        0.150901        0        
C4        C        0.611111        0.916666        0.150901        0        
C4        C        0.722222        0.916666        0.150901        0        
C4        C        0.833333        0.916666        0.150901        0        
C4        C        0.944444        0.916666        0.150901        0        
C1        C        0.0        0.020834        0.301802        0        
C2        C        0.055556        0.083334        0.301802        0        
C3        C        0.0        0.104166        0.301802        0        
C4        C        0.055556        0.041666        0.301802        0        
C1        C        0.0        0.145834        0.301802        0        
C2        C        0.055556        0.208334        0.301802        0        
C3        C        0.0        0.229166        0.301802        0        
C4        C        0.055556        0.166666        0.301802        0        
C1        C        0.0        0.270834        0.301802        0        
C2        C        0.055556        0.333334        0.301802        0        
C3        C        0.0        0.354166        0.301802        0        
C4        C        0.055556        0.291666        0.301802        0        
C1        C        0.0        0.395833        0.301802        0        
C2        C        0.055556        0.458334        0.301802        0        
C3        C        0.0        0.479166        0.301802        0        
C4        C        0.055556        0.416666        0.301802        0        
C1        C        0.0        0.520834        0.301802        0        
C2        C        0.055556        0.583334        0.301802        0        
C3        C        0.0        0.604166        0.301802        0        
C4        C        0.055556        0.541666        0.301802        0        
C1        C        0.0        0.645834        0.301802        0        
C2        C        0.055556        0.708334        0.301802        0        
C3        C        0.0        0.729166        0.301802        0        
C4        C        0.055556        0.666666        0.301802        0        
C1        C        0.111111        0.020834        0.301802        0        
C2        C        0.166667        0.083334        0.301802        0        
C3        C        0.111111        0.104166        0.301802        0        
C4        C        0.166667        0.041666        0.301802        0        
C1        C        0.111111        0.145834        0.301802        0        
C2        C        0.166667        0.208334        0.301802        0        
C3        C        0.111111        0.229166        0.301802        0        
C4        C        0.166667        0.166666        0.301802        0        
C1        C        0.111111        0.270834        0.301802        0        
C2        C        0.166667        0.333334        0.301802        0        
C3        C        0.111111        0.354166        0.301802        0        
C4        C        0.166667        0.291666        0.301802        0        
C1        C        0.111111        0.395833        0.301802        0        
C2        C        0.166667        0.458334        0.301802        0        
C3        C        0.111111        0.479166        0.301802        0        
C4        C        0.166667        0.416666        0.301802        0        
C1        C        0.111111        0.520834        0.301802        0        
C2        C        0.166667        0.583334        0.301802        0        
C3        C        0.111111        0.604166        0.301802        0        
C4        C        0.166667        0.541666        0.301802        0        
C1        C        0.111111        0.645834        0.301802        0        
C2        C        0.166667        0.708334        0.301802        0        
C3        C        0.111111        0.729166        0.301802        0        
C4        C        0.166667        0.666666        0.301802        0        
C1        C        0.222222        0.020834        0.301802        0        
C2        C        0.277778        0.083334        0.301802        0        
C3        C        0.222222        0.104166        0.301802        0        
C4        C        0.277778        0.041666        0.301802        0        
C1        C        0.222222        0.145834        0.301802        0        
C2        C        0.277778        0.208334        0.301802        0        
C3        C        0.222222        0.229166        0.301802        0        
C4        C        0.277778        0.166666        0.301802        0        
C1        C        0.222222        0.270834        0.301802        0        
C2        C        0.277778        0.333334        0.301802        0        
C3        C        0.222222        0.354166        0.301802        0        
C4        C        0.277778        0.291666        0.301802        0        
C1        C        0.222222        0.395833        0.301802        0        
C2        C        0.277778        0.458334        0.301802        0        
C3        C        0.222222        0.479166        0.301802        0        
C4        C        0.277778        0.416666        0.301802        0        
C1        C        0.222222        0.520834        0.301802        0        
C2        C        0.277778        0.583334        0.301802        0        
C3        C        0.222222        0.604166        0.301802        0        
C4        C        0.277778        0.541666        0.301802        0        
C1        C        0.222222        0.645834        0.301802        0        
C2        C        0.277778        0.708334        0.301802        0        
C3        C        0.222222        0.729166        0.301802        0        
C4        C        0.277778        0.666666        0.301802        0        
C1        C        0.333333        0.020834        0.301802        0        
C2        C        0.388889        0.083334        0.301802        0        
C3        C        0.333333        0.104166        0.301802        0        
C4        C        0.388889        0.041666        0.301802        0        
C1        C        0.333333        0.145834        0.301802        0        
C2        C        0.388889        0.208334        0.301802        0        
C3        C        0.333333        0.229166        0.301802        0        
C4        C        0.388889        0.166666        0.301802        0        
C1        C        0.333333        0.270834        0.301802        0        
C2        C        0.388889        0.333334        0.301802        0        
C3        C        0.333333        0.354166        0.301802        0        
C4        C        0.388889        0.291666        0.301802        0        
C1        C        0.333333        0.395833        0.301802        0        
C2        C        0.388889        0.458334        0.301802        0        
C3        C        0.333333        0.479166        0.301802        0        
C4        C        0.388889        0.416666        0.301802        0        
C1        C        0.333333        0.520834        0.301802        0        
C2        C        0.388889        0.583334        0.301802        0        
C3        C        0.333333        0.604166        0.301802        0        
C4        C        0.388889        0.541666        0.301802        0        
C1        C        0.333333        0.645834        0.301802        0        
C2        C        0.388889        0.708334        0.301802        0        
C3        C        0.333333        0.729166        0.301802        0        
C4        C        0.388889        0.666666        0.301802        0        
C1        C        0.444444        0.020834        0.301802        0        
C2        C        0.5        0.083334        0.301802        0        
C3        C        0.444444        0.104166        0.301802        0        
C4        C        0.5        0.041666        0.301802        0        
C1        C        0.444444        0.145834        0.301802        0        
C2        C        0.5        0.208334        0.301802        0        
C3        C        0.444444        0.229166        0.301802        0        
C4        C        0.5        0.166666        0.301802        0        
C1        C        0.444444        0.270834        0.301802        0        
C2        C        0.5        0.333334        0.301802        0        
C3        C        0.444444        0.354166        0.301802        0        
C4        C        0.5        0.291666        0.301802        0        
C1        C        0.444444        0.395833        0.301802        0        
C2        C        0.5        0.458334        0.301802        0        
C3        C        0.444444        0.479166        0.301802        0        
C4        C        0.5        0.416666        0.301802        0        
C1        C        0.444444        0.520834        0.301802        0        
C2        C        0.5        0.583334        0.301802        0        
C3        C        0.444444        0.604166        0.301802        0        
C4        C        0.5        0.541666        0.301802        0        
C1        C        0.444444        0.645834        0.301802        0        
C2        C        0.5        0.708334        0.301802        0        
C3        C        0.444444        0.729166        0.301802        0        
C4        C        0.5        0.666666        0.301802        0        
C1        C        0.555556        0.020834        0.301802        0        
C2        C        0.611111        0.083334        0.301802        0        
C3        C        0.555556        0.104166        0.301802        0        
C4        C        0.611111        0.041666        0.301802        0        
C1        C        0.555556        0.145834        0.301802        0        
C2        C        0.611111        0.208334        0.301802        0        
C3        C        0.555556        0.229166        0.301802        0        
C4        C        0.611111        0.166666        0.301802        0        
C1        C        0.555556        0.270834        0.301802        0        
C2        C        0.611111        0.333334        0.301802        0        
C3        C        0.555556        0.354166        0.301802        0        
C4        C        0.611111        0.291666        0.301802        0        
C1        C        0.555556        0.395833        0.301802        0        
C2        C        0.611111        0.458334        0.301802        0        
C3        C        0.555556        0.479166        0.301802        0        
C4        C        0.611111        0.416666        0.301802        0        
C1        C        0.555556        0.520834        0.301802        0        
C2        C        0.611111        0.583334        0.301802        0        
C3        C        0.555556        0.604166        0.301802        0        
C4        C        0.611111        0.541666        0.301802        0        
C1        C        0.555556        0.645834        0.301802        0        
C2        C        0.611111        0.708334        0.301802        0        
C3        C        0.555556        0.729166        0.301802        0        
C4        C        0.611111        0.666666        0.301802        0        
C1        C        0.666667        0.020834        0.301802        0        
C2        C        0.722222        0.083334        0.301802        0        
C3        C        0.666667        0.104166        0.301802        0        
C4        C        0.722222        0.041666        0.301802        0        
C1        C        0.666667        0.145834        0.301802        0        
C2        C        0.722222        0.208334        0.301802        0        
C3        C        0.666667        0.229166        0.301802        0        
C4        C        0.722222        0.166666        0.301802        0        
C1        C        0.666667        0.270834        0.301802        0        
C2        C        0.722222        0.333334        0.301802        0        
C3        C        0.666667        0.354166        0.301802        0        
C4        C        0.722222        0.291666        0.301802        0        
C1        C        0.666667        0.395833        0.301802        0        
C2        C        0.722222        0.458334        0.301802        0        
C3        C        0.666667        0.479166        0.301802        0        
C4        C        0.722222        0.416666        0.301802        0        
C1        C        0.666667        0.520834        0.301802        0        
C2        C        0.722222        0.583334        0.301802        0        
C3        C        0.666667        0.604166        0.301802        0        
C4        C        0.722222        0.541666        0.301802        0        
C1        C        0.666667        0.645834        0.301802        0        
C2        C        0.722222        0.708334        0.301802        0        
C3        C        0.666667        0.729166        0.301802        0        
C4        C        0.722222        0.666666        0.301802        0        
C1        C        0.777778        0.020834        0.301802        0        
C2        C        0.833333        0.083334        0.301802        0        
C3        C        0.777778        0.104166        0.301802        0        
C4        C        0.833333        0.041666        0.301802        0        
C1        C        0.777778        0.145834        0.301802        0        
C2        C        0.833333        0.208334        0.301802        0        
C3        C        0.777778        0.229166        0.301802        0        
C4        C        0.833333        0.166666        0.301802        0        
C1        C        0.777778        0.270834        0.301802        0        
C2        C        0.833333        0.333334        0.301802        0        
C3        C        0.777778        0.354166        0.301802        0        
C4        C        0.833333        0.291666        0.301802        0        
C1        C        0.777778        0.395833        0.301802        0        
C2        C        0.833333        0.458334        0.301802        0        
C3        C        0.777778        0.479166        0.301802        0        
C4        C        0.833333        0.416666        0.301802        0        
C1        C        0.777778        0.520834        0.301802        0        
C2        C        0.833333        0.583334        0.301802        0        
C3        C        0.777778        0.604166        0.301802        0        
C4        C        0.833333        0.541666        0.301802        0        
C1        C        0.777778        0.645834        0.301802        0        
C2        C        0.833333        0.708334        0.301802        0        
C3        C        0.777778        0.729166        0.301802        0        
C4        C        0.833333        0.666666        0.301802        0        
C1        C        0.888889        0.020834        0.301802        0        
C2        C        0.944444        0.083334        0.301802        0        
C3        C        0.888889        0.104166        0.301802        0        
C4        C        0.944444        0.041666        0.301802        0        
C1        C        0.888889        0.145834        0.301802        0        
C2        C        0.944444        0.208334        0.301802        0        
C3        C        0.888889        0.229166        0.301802        0        
C4        C        0.944444        0.166666        0.301802        0        
C1        C        0.888889        0.270834        0.301802        0        
C2        C        0.944444        0.333334        0.301802        0        
C3        C        0.888889        0.354166        0.301802        0        
C4        C        0.944444        0.291666        0.301802        0        
C1        C        0.888889        0.395833        0.301802        0        
C2        C        0.944444        0.458334        0.301802        0        
C3        C        0.888889        0.479166        0.301802        0        
C4        C        0.944444        0.416666        0.301802        0        
C1        C        0.888889        0.520834        0.301802        0        
C2        C        0.944444        0.583334        0.301802        0        
C3        C        0.888889        0.604166        0.301802        0        
C4        C        0.944444        0.541666        0.301802        0        
C1        C        0.888889        0.645834        0.301802        0        
C2        C        0.944444        0.708334        0.301802        0        
C3        C        0.888889        0.729166        0.301802        0        
C4        C        0.944444        0.666666        0.301802        0        
C1        C        0.0        0.770834        0.301802        0        
C1        C        0.111111        0.770834        0.301802        0        
C1        C        0.222222        0.770834        0.301802        0        
C1        C        0.333333        0.770834        0.301802        0        
C1        C        0.444444        0.770834        0.301802        0        
C1        C        0.555556        0.770834        0.301802        0        
C1        C        0.666667        0.770834        0.301802        0        
C1        C        0.777778        0.770834        0.301802        0        
C1        C        0.888889        0.770834        0.301802        0        
C2        C        0.055556        0.833334        0.301802        0        
C2        C        0.166667        0.833334        0.301802        0        
C2        C        0.277778        0.833334        0.301802        0        
C2        C        0.388889        0.833334        0.301802        0        
C2        C        0.5        0.833334        0.301802        0        
C2        C        0.611111        0.833334        0.301802        0        
C2        C        0.722222        0.833334        0.301802        0        
C2        C        0.833333        0.833334        0.301802        0        
C2        C        0.944444        0.833334        0.301802        0        
C3        C        0.0        0.854167        0.301802        0        
C3        C        0.111111        0.854167        0.301802        0        
C3        C        0.222222        0.854167        0.301802        0        
C3        C        0.333333        0.854167        0.301802        0        
C3        C        0.444444        0.854167        0.301802        0        
C3        C        0.555556        0.854167        0.301802        0        
C3        C        0.666667        0.854167        0.301802        0        
C3        C        0.777778        0.854167        0.301802        0        
C3        C        0.888889        0.854167        0.301802        0        
C4        C        0.055556        0.791666        0.301802        0        
C4        C        0.166667        0.791666        0.301802        0        
C4        C        0.277778        0.791666        0.301802        0        
C4        C        0.388889        0.791666        0.301802        0        
C4        C        0.5        0.791666        0.301802        0        
C4        C        0.611111        0.791666        0.301802        0        
C4        C        0.722222        0.791666        0.301802        0        
C4        C        0.833333        0.791666        0.301802        0        
C4        C        0.944444        0.791666        0.301802        0        
C1        C        0.0        0.895834        0.301802        0        
C1        C        0.111111        0.895834        0.301802        0        
C1        C        0.222222        0.895834        0.301802        0        
C1        C        0.333333        0.895834        0.301802        0        
C1        C        0.444444        0.895834        0.301802        0        
C1        C        0.555556        0.895834        0.301802        0        
C1        C        0.666667        0.895834        0.301802        0        
C1        C        0.777778        0.895834        0.301802        0        
C1        C        0.888889        0.895834        0.301802        0        
C2        C        0.055556        0.958334        0.301802        0        
C2        C        0.166667        0.958334        0.301802        0        
C2        C        0.277778        0.958334        0.301802        0        
C2        C        0.388889        0.958334        0.301802        0        
C2        C        0.5        0.958334        0.301802        0        
C2        C        0.611111        0.958334        0.301802        0        
C2        C        0.722222        0.958334        0.301802        0        
C2        C        0.833333        0.958334        0.301802        0        
C2        C        0.944444        0.958334        0.301802        0        
C3        C        0.0        0.979167        0.301802        0        
C3        C        0.111111        0.979167        0.301802        0        
C3        C        0.222222        0.979167        0.301802        0        
C3        C        0.333333        0.979167        0.301802        0        
C3        C        0.444444        0.979167        0.301802        0        
C3        C        0.555556        0.979167        0.301802        0        
C3        C        0.666667        0.979167        0.301802        0        
C3        C        0.777778        0.979167        0.301802        0        
C3        C        0.888889        0.979167        0.301802        0        
C4        C        0.055556        0.916666        0.301802        0        
C4        C        0.166667        0.916666        0.301802        0        
C4        C        0.277778        0.916666        0.301802        0        
C4        C        0.388889        0.916666        0.301802        0        
C4        C        0.5        0.916666        0.301802        0        
C4        C        0.611111        0.916666        0.301802        0        
C4        C        0.722222        0.916666        0.301802        0        
C4        C        0.833333        0.916666        0.301802        0        
C4        C        0.944444        0.916666        0.301802        0        
