data_graphite_ortho

_audit_creation_method RASPA-1.0
_audit_creation_date 2012-2-3
_audit_author_name 'David Dubbeldam'

_cell_length_a    39.36    
_cell_length_b    38.339999999999996    
_cell_length_c    13.7    
_cell_angle_alpha 90
_cell_angle_beta  90
_cell_angle_gamma 90
_cell_volume      20674.15      

_symmetry_cell_setting          triclinic
_symmetry_space_group_name_Hall 'P 1'
_symmetry_space_group_name_H-M  'P 1'
_symmetry_Int_Tables_number     1

_symmetry_equiv_pos_as_xyz 'x,y,z'

loop_
_atom_site_label
_atom_site_type_symbol
_atom_site_fract_x
_atom_site_fract_y
_atom_site_fract_z
_atom_site_charge
C_FG        C        0.0        0.018519        0.12913861313868613        0.2        
C2        C        0.03125        0.074075        0.12913861313868613        0        
C_FG        C        0.0        0.092592        0.12913861313868613        0.2        
C4        C        0.03125        0.037037        0.12913861313868613        0        
C_FG        C        0.0        0.12963        0.12913861313868613        0.2        
C2        C        0.03125        0.185185        0.12913861313868613        0        
C3        C        0.0        0.203703        0.12913861313868613        0        
C4        C        0.03125        0.148148        0.12913861313868613        0        
C1        C        0.0        0.24074099999999998        0.12913861313868613        0        
C2        C        0.03125        0.296297        0.12913861313868613        0        
C3        C        0.0        0.314815        0.12913861313868613        0        
C4        C        0.03125        0.259259        0.12913861313868613        0        
C_FG        C        0.0        0.351852        0.12913861313868613        0.2        
C2        C        0.03125        0.407408        0.12913861313868613        0        
C3        C        0.0        0.425925        0.12913861313868613        0        
C4        C        0.03125        0.37037        0.12913861313868613        0        
C_FG        C        0.0        0.46296300000000007        0.12913861313868613        0.2        
C2        C        0.03125        0.518519        0.12913861313868613        0        
C3        C        0.0        0.537037        0.12913861313868613        0        
C4        C        0.03125        0.481481        0.12913861313868613        0        
C_FG        C        0.0        0.574075        0.12913861313868613        0.2        
C2        C        0.03125        0.62963        0.12913861313868613        0        
C3        C        0.0        0.648148        0.12913861313868613        0        
C4        C        0.03125        0.592592        0.12913861313868613        0        
C1        C        0.0625        0.018519        0.12913861313868613        0        
C2        C        0.09375        0.074075        0.12913861313868613        0        
C3        C        0.0625        0.092592        0.12913861313868613        0        
C4        C        0.09375        0.037037        0.12913861313868613        0        
C1        C        0.0625        0.12963        0.12913861313868613        0        
C2        C        0.09375        0.185185        0.12913861313868613        0        
C3        C        0.0625        0.203703        0.12913861313868613        0        
C4        C        0.09375        0.148148        0.12913861313868613        0        
C1        C        0.0625        0.24074099999999998        0.12913861313868613        0        
C2        C        0.09375        0.296297        0.12913861313868613        0        
C3        C        0.0625        0.314815        0.12913861313868613        0        
C4        C        0.09375        0.259259        0.12913861313868613        0        
C1        C        0.0625        0.351852        0.12913861313868613        0        
C2        C        0.09375        0.407408        0.12913861313868613        0        
C3        C        0.0625        0.425925        0.12913861313868613        0        
C4        C        0.09375        0.37037        0.12913861313868613        0        
C1        C        0.0625        0.46296300000000007        0.12913861313868613        0        
C2        C        0.09375        0.518519        0.12913861313868613        0        
C3        C        0.0625        0.537037        0.12913861313868613        0        
C4        C        0.09375        0.481481        0.12913861313868613        0        
C1        C        0.0625        0.574075        0.12913861313868613        0        
C2        C        0.09375        0.62963        0.12913861313868613        0        
C3        C        0.0625        0.648148        0.12913861313868613        0        
C4        C        0.09375        0.592592        0.12913861313868613        0        
C_FG        C        0.125        0.018519        0.12913861313868613        0.2        
C2        C        0.15625        0.074075        0.12913861313868613        0        
C_FG        C        0.125        0.092592        0.12913861313868613        0.2        
C4        C        0.15625        0.037037        0.12913861313868613        0        
C_FG        C        0.125        0.12963        0.12913861313868613        0.2        
C2        C        0.15625        0.185185        0.12913861313868613        0        
C3        C        0.125        0.203703        0.12913861313868613        0        
C4        C        0.15625        0.148148        0.12913861313868613        0        
C1        C        0.125        0.24074099999999998        0.12913861313868613        0        
C2        C        0.15625        0.296297        0.12913861313868613        0        
C3        C        0.125        0.314815        0.12913861313868613        0        
C4        C        0.15625        0.259259        0.12913861313868613        0        
C_FG        C        0.125        0.351852        0.12913861313868613        0.2        
C2        C        0.15625        0.407408        0.12913861313868613        0        
C3        C        0.125        0.425925        0.12913861313868613        0        
C4        C        0.15625        0.37037        0.12913861313868613        0        
C_FG        C        0.125        0.46296300000000007        0.12913861313868613        0.2        
C2        C        0.15625        0.518519        0.12913861313868613        0        
C3        C        0.125        0.537037        0.12913861313868613        0        
C4        C        0.15625        0.481481        0.12913861313868613        0        
C_FG        C        0.125        0.574075        0.12913861313868613        0.2        
C2        C        0.15625        0.62963        0.12913861313868613        0        
C3        C        0.125        0.648148        0.12913861313868613        0        
C4        C        0.15625        0.592592        0.12913861313868613        0        
C_FG        C        0.1875        0.018519        0.12913861313868613        0.2        
C2        C        0.21875        0.074075        0.12913861313868613        0        
C_FG        C        0.1875        0.092592        0.12913861313868613        0.2        
C4        C        0.21875        0.037037        0.12913861313868613        0        
C_FG        C        0.1875        0.12963        0.12913861313868613        0.2        
C2        C        0.21875        0.185185        0.12913861313868613        0        
C3        C        0.1875        0.203703        0.12913861313868613        0        
C4        C        0.21875        0.148148        0.12913861313868613        0        
C1        C        0.1875        0.24074099999999998        0.12913861313868613        0        
C2        C        0.21875        0.296297        0.12913861313868613        0        
C3        C        0.1875        0.314815        0.12913861313868613        0        
C4        C        0.21875        0.259259        0.12913861313868613        0        
C_FG        C        0.1875        0.351852        0.12913861313868613        0.2        
C2        C        0.21875        0.407408        0.12913861313868613        0        
C3        C        0.1875        0.425925        0.12913861313868613        0        
C4        C        0.21875        0.37037        0.12913861313868613        0        
C_FG        C        0.1875        0.46296300000000007        0.12913861313868613        0.2        
C2        C        0.21875        0.518519        0.12913861313868613        0        
C3        C        0.1875        0.537037        0.12913861313868613        0        
C4        C        0.21875        0.481481        0.12913861313868613        0        
C_FG        C        0.1875        0.574075        0.12913861313868613        0.2        
C2        C        0.21875        0.62963        0.12913861313868613        0        
C3        C        0.1875        0.648148        0.12913861313868613        0        
C4        C        0.21875        0.592592        0.12913861313868613        0        
C1        C        0.25        0.018519        0.12913861313868613        0        
C2        C        0.28125        0.074075        0.12913861313868613        0        
C3        C        0.25        0.092592        0.12913861313868613        0        
C4        C        0.28125        0.037037        0.12913861313868613        0        
C1        C        0.25        0.12963        0.12913861313868613        0        
C2        C        0.28125        0.185185        0.12913861313868613        0        
C3        C        0.25        0.203703        0.12913861313868613        0        
C4        C        0.28125        0.148148        0.12913861313868613        0        
C1        C        0.25        0.24074099999999998        0.12913861313868613        0        
C2        C        0.28125        0.296297        0.12913861313868613        0        
C3        C        0.25        0.314815        0.12913861313868613        0        
C4        C        0.28125        0.259259        0.12913861313868613        0        
C1        C        0.25        0.351852        0.12913861313868613        0        
C2        C        0.28125        0.407408        0.12913861313868613        0        
C3        C        0.25        0.425925        0.12913861313868613        0        
C4        C        0.28125        0.37037        0.12913861313868613        0        
C1        C        0.25        0.46296300000000007        0.12913861313868613        0        
C2        C        0.28125        0.518519        0.12913861313868613        0        
C3        C        0.25        0.537037        0.12913861313868613        0        
C4        C        0.28125        0.481481        0.12913861313868613        0        
C1        C        0.25        0.574075        0.12913861313868613        0        
C2        C        0.28125        0.62963        0.12913861313868613        0        
C3        C        0.25        0.648148        0.12913861313868613        0        
C4        C        0.28125        0.592592        0.12913861313868613        0        
C1        C        0.3125        0.018519        0.12913861313868613        0        
C2        C        0.34375        0.074075        0.12913861313868613        0        
C3        C        0.3125        0.092592        0.12913861313868613        0        
C4        C        0.34375        0.037037        0.12913861313868613        0        
C1        C        0.3125        0.12963        0.12913861313868613        0        
C2        C        0.34375        0.185185        0.12913861313868613        0        
C3        C        0.3125        0.203703        0.12913861313868613        0        
C4        C        0.34375        0.148148        0.12913861313868613        0        
C1        C        0.3125        0.24074099999999998        0.12913861313868613        0        
C2        C        0.34375        0.296297        0.12913861313868613        0        
C3        C        0.3125        0.314815        0.12913861313868613        0        
C4        C        0.34375        0.259259        0.12913861313868613        0        
C1        C        0.3125        0.351852        0.12913861313868613        0        
C2        C        0.34375        0.407408        0.12913861313868613        0        
C3        C        0.3125        0.425925        0.12913861313868613        0        
C4        C        0.34375        0.37037        0.12913861313868613        0        
C1        C        0.3125        0.46296300000000007        0.12913861313868613        0        
C2        C        0.34375        0.518519        0.12913861313868613        0        
C3        C        0.3125        0.537037        0.12913861313868613        0        
C4        C        0.34375        0.481481        0.12913861313868613        0        
C1        C        0.3125        0.574075        0.12913861313868613        0        
C2        C        0.34375        0.62963        0.12913861313868613        0        
C3        C        0.3125        0.648148        0.12913861313868613        0        
C4        C        0.34375        0.592592        0.12913861313868613        0        
C1        C        0.375        0.018519        0.12913861313868613        0        
C2        C        0.40625        0.074075        0.12913861313868613        0        
C3        C        0.375        0.092592        0.12913861313868613        0        
C4        C        0.40625        0.037037        0.12913861313868613        0        
C1        C        0.375        0.12963        0.12913861313868613        0        
C2        C        0.40625        0.185185        0.12913861313868613        0        
C3        C        0.375        0.203703        0.12913861313868613        0        
C4        C        0.40625        0.148148        0.12913861313868613        0        
C1        C        0.375        0.24074099999999998        0.12913861313868613        0        
C2        C        0.40625        0.296297        0.12913861313868613        0        
C3        C        0.375        0.314815        0.12913861313868613        0        
C4        C        0.40625        0.259259        0.12913861313868613        0        
C1        C        0.375        0.351852        0.12913861313868613        0        
C2        C        0.40625        0.407408        0.12913861313868613        0        
C3        C        0.375        0.425925        0.12913861313868613        0        
C4        C        0.40625        0.37037        0.12913861313868613        0        
C1        C        0.375        0.46296300000000007        0.12913861313868613        0        
C2        C        0.40625        0.518519        0.12913861313868613        0        
C3        C        0.375        0.537037        0.12913861313868613        0        
C4        C        0.40625        0.481481        0.12913861313868613        0        
C1        C        0.375        0.574075        0.12913861313868613        0        
C2        C        0.40625        0.62963        0.12913861313868613        0        
C3        C        0.375        0.648148        0.12913861313868613        0        
C4        C        0.40625        0.592592        0.12913861313868613        0        
C1        C        0.4375        0.018519        0.12913861313868613        0        
C_FG        C        0.46875        0.074075        0.12913861313868613        0.2        
C3        C        0.4375        0.092592        0.12913861313868613        0        
C4        C        0.46875        0.037037        0.12913861313868613        0        
C1        C        0.4375        0.12963        0.12913861313868613        0        
C2        C        0.46875        0.185185        0.12913861313868613        0        
C3        C        0.4375        0.203703        0.12913861313868613        0        
C_FG        C        0.46875        0.148148        0.12913861313868613        0.2        
C1        C        0.4375        0.24074099999999998        0.12913861313868613        0        
C2        C        0.46875        0.296297        0.12913861313868613        0        
C3        C        0.4375        0.314815        0.12913861313868613        0        
C4        C        0.46875        0.259259        0.12913861313868613        0        
C1        C        0.4375        0.351852        0.12913861313868613        0        
C_FG        C        0.46875        0.407408        0.12913861313868613        0.2        
C3        C        0.4375        0.425925        0.12913861313868613        0        
C4        C        0.46875        0.37037        0.12913861313868613        0        
C1        C        0.4375        0.46296300000000007        0.12913861313868613        0        
C2        C        0.46875        0.518519        0.12913861313868613        0        
C3        C        0.4375        0.537037        0.12913861313868613        0        
C4        C        0.46875        0.481481        0.12913861313868613        0        
C1        C        0.4375        0.574075        0.12913861313868613        0        
C2        C        0.46875        0.62963        0.12913861313868613        0        
C3        C        0.4375        0.648148        0.12913861313868613        0        
C4        C        0.46875        0.592592        0.12913861313868613        0        
C1        C        0.5        0.018519        0.12913861313868613        0        
C2        C        0.53125        0.074075        0.12913861313868613        0        
C3        C        0.5        0.092592        0.12913861313868613        0        
C4        C        0.53125        0.037037        0.12913861313868613        0        
C1        C        0.5        0.12963        0.12913861313868613        0        
C2        C        0.53125        0.185185        0.12913861313868613        0        
C3        C        0.5        0.203703        0.12913861313868613        0        
C4        C        0.53125        0.148148        0.12913861313868613        0        
C1        C        0.5        0.24074099999999998        0.12913861313868613        0        
C2        C        0.53125        0.296297        0.12913861313868613        0        
C3        C        0.5        0.314815        0.12913861313868613        0        
C4        C        0.53125        0.259259        0.12913861313868613        0        
C1        C        0.5        0.351852        0.12913861313868613        0        
C2        C        0.53125        0.407408        0.12913861313868613        0        
C3        C        0.5        0.425925        0.12913861313868613        0        
C4        C        0.53125        0.37037        0.12913861313868613        0        
C1        C        0.5        0.46296300000000007        0.12913861313868613        0        
C2        C        0.53125        0.518519        0.12913861313868613        0        
C3        C        0.5        0.537037        0.12913861313868613        0        
C4        C        0.53125        0.481481        0.12913861313868613        0        
C1        C        0.5        0.574075        0.12913861313868613        0        
C2        C        0.53125        0.62963        0.12913861313868613        0        
C3        C        0.5        0.648148        0.12913861313868613        0        
C4        C        0.53125        0.592592        0.12913861313868613        0        
C1        C        0.5625        0.018519        0.12913861313868613        0        
C2        C        0.59375        0.074075        0.12913861313868613        0        
C3        C        0.5625        0.092592        0.12913861313868613        0        
C4        C        0.59375        0.037037        0.12913861313868613        0        
C1        C        0.5625        0.12963        0.12913861313868613        0        
C2        C        0.59375        0.185185        0.12913861313868613        0        
C3        C        0.5625        0.203703        0.12913861313868613        0        
C4        C        0.59375        0.148148        0.12913861313868613        0        
C1        C        0.5625        0.24074099999999998        0.12913861313868613        0        
C2        C        0.59375        0.296297        0.12913861313868613        0        
C3        C        0.5625        0.314815        0.12913861313868613        0        
C4        C        0.59375        0.259259        0.12913861313868613        0        
C1        C        0.5625        0.351852        0.12913861313868613        0        
C2        C        0.59375        0.407408        0.12913861313868613        0        
C3        C        0.5625        0.425925        0.12913861313868613        0        
C4        C        0.59375        0.37037        0.12913861313868613        0        
C1        C        0.5625        0.46296300000000007        0.12913861313868613        0        
C2        C        0.59375        0.518519        0.12913861313868613        0        
C3        C        0.5625        0.537037        0.12913861313868613        0        
C4        C        0.59375        0.481481        0.12913861313868613        0        
C1        C        0.5625        0.574075        0.12913861313868613        0        
C2        C        0.59375        0.62963        0.12913861313868613        0        
C3        C        0.5625        0.648148        0.12913861313868613        0        
C4        C        0.59375        0.592592        0.12913861313868613        0        
C1        C        0.625        0.018519        0.12913861313868613        0        
C2        C        0.65625        0.074075        0.12913861313868613        0        
C3        C        0.625        0.092592        0.12913861313868613        0        
C4        C        0.65625        0.037037        0.12913861313868613        0        
C1        C        0.625        0.12963        0.12913861313868613        0        
C2        C        0.65625        0.185185        0.12913861313868613        0        
C3        C        0.625        0.203703        0.12913861313868613        0        
C4        C        0.65625        0.148148        0.12913861313868613        0        
C1        C        0.625        0.24074099999999998        0.12913861313868613        0        
C2        C        0.65625        0.296297        0.12913861313868613        0        
C3        C        0.625        0.314815        0.12913861313868613        0        
C4        C        0.65625        0.259259        0.12913861313868613        0        
C1        C        0.625        0.351852        0.12913861313868613        0        
C2        C        0.65625        0.407408        0.12913861313868613        0        
C3        C        0.625        0.425925        0.12913861313868613        0        
C4        C        0.65625        0.37037        0.12913861313868613        0        
C1        C        0.625        0.46296300000000007        0.12913861313868613        0        
C2        C        0.65625        0.518519        0.12913861313868613        0        
C3        C        0.625        0.537037        0.12913861313868613        0        
C4        C        0.65625        0.481481        0.12913861313868613        0        
C1        C        0.625        0.574075        0.12913861313868613        0        
C2        C        0.65625        0.62963        0.12913861313868613        0        
C3        C        0.625        0.648148        0.12913861313868613        0        
C4        C        0.65625        0.592592        0.12913861313868613        0        
C1        C        0.6875        0.018519        0.12913861313868613        0        
C2        C        0.71875        0.074075        0.12913861313868613        0        
C3        C        0.6875        0.092592        0.12913861313868613        0        
C4        C        0.71875        0.037037        0.12913861313868613        0        
C1        C        0.6875        0.12963        0.12913861313868613        0        
C2        C        0.71875        0.185185        0.12913861313868613        0        
C3        C        0.6875        0.203703        0.12913861313868613        0        
C4        C        0.71875        0.148148        0.12913861313868613        0        
C1        C        0.6875        0.24074099999999998        0.12913861313868613        0        
C2        C        0.71875        0.296297        0.12913861313868613        0        
C3        C        0.6875        0.314815        0.12913861313868613        0        
C4        C        0.71875        0.259259        0.12913861313868613        0        
C1        C        0.6875        0.351852        0.12913861313868613        0        
C2        C        0.71875        0.407408        0.12913861313868613        0        
C3        C        0.6875        0.425925        0.12913861313868613        0        
C4        C        0.71875        0.37037        0.12913861313868613        0        
C1        C        0.6875        0.46296300000000007        0.12913861313868613        0        
C2        C        0.71875        0.518519        0.12913861313868613        0        
C3        C        0.6875        0.537037        0.12913861313868613        0        
C4        C        0.71875        0.481481        0.12913861313868613        0        
C1        C        0.6875        0.574075        0.12913861313868613        0        
C2        C        0.71875        0.62963        0.12913861313868613        0        
C3        C        0.6875        0.648148        0.12913861313868613        0        
C4        C        0.71875        0.592592        0.12913861313868613        0        
C1        C        0.75        0.018519        0.12913861313868613        0        
C2        C        0.78125        0.074075        0.12913861313868613        0        
C3        C        0.75        0.092592        0.12913861313868613        0        
C4        C        0.78125        0.037037        0.12913861313868613        0        
C1        C        0.75        0.12963        0.12913861313868613        0        
C2        C        0.78125        0.185185        0.12913861313868613        0        
C3        C        0.75        0.203703        0.12913861313868613        0        
C4        C        0.78125        0.148148        0.12913861313868613        0        
C1        C        0.75        0.24074099999999998        0.12913861313868613        0        
C2        C        0.78125        0.296297        0.12913861313868613        0        
C3        C        0.75        0.314815        0.12913861313868613        0        
C4        C        0.78125        0.259259        0.12913861313868613        0        
C1        C        0.75        0.351852        0.12913861313868613        0        
C2        C        0.78125        0.407408        0.12913861313868613        0        
C3        C        0.75        0.425925        0.12913861313868613        0        
C4        C        0.78125        0.37037        0.12913861313868613        0        
C1        C        0.75        0.46296300000000007        0.12913861313868613        0        
C2        C        0.78125        0.518519        0.12913861313868613        0        
C3        C        0.75        0.537037        0.12913861313868613        0        
C4        C        0.78125        0.481481        0.12913861313868613        0        
C1        C        0.75        0.574075        0.12913861313868613        0        
C2        C        0.78125        0.62963        0.12913861313868613        0        
C3        C        0.75        0.648148        0.12913861313868613        0        
C4        C        0.78125        0.592592        0.12913861313868613        0        
C_FG        C        0.8125        0.018519        0.12913861313868613        0.2        
C2        C        0.84375        0.074075        0.12913861313868613        0        
C_FG        C        0.8125        0.092592        0.12913861313868613        0.2        
C4        C        0.84375        0.037037        0.12913861313868613        0        
C_FG        C        0.8125        0.12963        0.12913861313868613        0.2        
C2        C        0.84375        0.185185        0.12913861313868613        0        
C3        C        0.8125        0.203703        0.12913861313868613        0        
C4        C        0.84375        0.148148        0.12913861313868613        0        
C1        C        0.8125        0.24074099999999998        0.12913861313868613        0        
C2        C        0.84375        0.296297        0.12913861313868613        0        
C3        C        0.8125        0.314815        0.12913861313868613        0        
C4        C        0.84375        0.259259        0.12913861313868613        0        
C_FG        C        0.8125        0.351852        0.12913861313868613        0.2        
C2        C        0.84375        0.407408        0.12913861313868613        0        
C3        C        0.8125        0.425925        0.12913861313868613        0        
C4        C        0.84375        0.37037        0.12913861313868613        0        
C_FG        C        0.8125        0.46296300000000007        0.12913861313868613        0.2        
C2        C        0.84375        0.518519        0.12913861313868613        0        
C3        C        0.8125        0.537037        0.12913861313868613        0        
C4        C        0.84375        0.481481        0.12913861313868613        0        
C_FG        C        0.8125        0.574075        0.12913861313868613        0.2        
C2        C        0.84375        0.62963        0.12913861313868613        0        
C3        C        0.8125        0.648148        0.12913861313868613        0        
C4        C        0.84375        0.592592        0.12913861313868613        0        
C_FG        C        0.875        0.018519        0.12913861313868613        0.2        
C2        C        0.9062500000000001        0.074075        0.12913861313868613        0        
C_FG        C        0.875        0.092592        0.12913861313868613        0.2        
C4        C        0.9062500000000001        0.037037        0.12913861313868613        0        
C_FG        C        0.875        0.12963        0.12913861313868613        0.2        
C2        C        0.9062500000000001        0.185185        0.12913861313868613        0        
C3        C        0.875        0.203703        0.12913861313868613        0        
C4        C        0.9062500000000001        0.148148        0.12913861313868613        0        
C1        C        0.875        0.24074099999999998        0.12913861313868613        0        
C2        C        0.9062500000000001        0.296297        0.12913861313868613        0        
C3        C        0.875        0.314815        0.12913861313868613        0        
C4        C        0.9062500000000001        0.259259        0.12913861313868613        0        
C_FG        C        0.875        0.351852        0.12913861313868613        0.2        
C2        C        0.9062500000000001        0.407408        0.12913861313868613        0        
C3        C        0.875        0.425925        0.12913861313868613        0        
C4        C        0.9062500000000001        0.37037        0.12913861313868613        0        
C_FG        C        0.875        0.46296300000000007        0.12913861313868613        0.2        
C2        C        0.9062500000000001        0.518519        0.12913861313868613        0        
C3        C        0.875        0.537037        0.12913861313868613        0        
C4        C        0.9062500000000001        0.481481        0.12913861313868613        0        
C_FG        C        0.875        0.574075        0.12913861313868613        0.2        
C2        C        0.9062500000000001        0.62963        0.12913861313868613        0        
C3        C        0.875        0.648148        0.12913861313868613        0        
C4        C        0.9062500000000001        0.592592        0.12913861313868613        0        
C1        C        0.9375        0.018519        0.12913861313868613        0        
C_FG        C        0.9687500000000001        0.074075        0.12913861313868613        0.2        
C3        C        0.9375        0.092592        0.12913861313868613        0        
C4        C        0.9687500000000001        0.037037        0.12913861313868613        0        
C1        C        0.9375        0.12963        0.12913861313868613        0        
C2        C        0.9687500000000001        0.185185        0.12913861313868613        0        
C3        C        0.9375        0.203703        0.12913861313868613        0        
C_FG        C        0.9687500000000001        0.148148        0.12913861313868613        0.2        
C1        C        0.9375        0.24074099999999998        0.12913861313868613        0        
C2        C        0.9687500000000001        0.296297        0.12913861313868613        0        
C3        C        0.9375        0.314815        0.12913861313868613        0        
C4        C        0.9687500000000001        0.259259        0.12913861313868613        0        
C1        C        0.9375        0.351852        0.12913861313868613        0        
C_FG        C        0.9687500000000001        0.407408        0.12913861313868613        0.2        
C3        C        0.9375        0.425925        0.12913861313868613        0        
C4        C        0.9687500000000001        0.37037        0.12913861313868613        0        
C1        C        0.9375        0.46296300000000007        0.12913861313868613        0        
C2        C        0.9687500000000001        0.518519        0.12913861313868613        0        
C3        C        0.9375        0.537037        0.12913861313868613        0        
C4        C        0.9687500000000001        0.481481        0.12913861313868613        0        
C1        C        0.9375        0.574075        0.12913861313868613        0        
C2        C        0.9687500000000001        0.62963        0.12913861313868613        0        
C3        C        0.9375        0.648148        0.12913861313868613        0        
C4        C        0.9687500000000001        0.592592        0.12913861313868613        0        
C_FG        C        0.0        0.685186        0.12913861313868613        0.2        
C1        C        0.0625        0.685186        0.12913861313868613        0        
C_FG        C        0.125        0.685186        0.12913861313868613        0.2        
C_FG        C        0.1875        0.685186        0.12913861313868613        0.2        
C1        C        0.25        0.685186        0.12913861313868613        0        
C1        C        0.3125        0.685186        0.12913861313868613        0        
C1        C        0.375        0.685186        0.12913861313868613        0        
C1        C        0.4375        0.685186        0.12913861313868613        0        
C1        C        0.5        0.685186        0.12913861313868613        0        
C1        C        0.5625        0.685186        0.12913861313868613        0        
C1        C        0.625        0.685186        0.12913861313868613        0        
C1        C        0.6875        0.685186        0.12913861313868613        0        
C1        C        0.75        0.685186        0.12913861313868613        0        
C_FG        C        0.8125        0.685186        0.12913861313868613        0.2        
C_FG        C        0.875        0.685186        0.12913861313868613        0.2        
C1        C        0.9375        0.685186        0.12913861313868613        0        
C2        C        0.03125        0.740741        0.12913861313868613        0        
C2        C        0.09375        0.740741        0.12913861313868613        0        
C2        C        0.15625        0.740741        0.12913861313868613        0        
C2        C        0.21875        0.740741        0.12913861313868613        0        
C2        C        0.28125        0.740741        0.12913861313868613        0        
C2        C        0.34375        0.740741        0.12913861313868613        0        
C2        C        0.40625        0.740741        0.12913861313868613        0        
C_FG        C        0.46875        0.740741        0.12913861313868613        0.2        
C2        C        0.53125        0.740741        0.12913861313868613        0        
C2        C        0.59375        0.740741        0.12913861313868613        0        
C2        C        0.65625        0.740741        0.12913861313868613        0        
C2        C        0.71875        0.740741        0.12913861313868613        0        
C2        C        0.78125        0.740741        0.12913861313868613        0        
C2        C        0.84375        0.740741        0.12913861313868613        0        
C2        C        0.9062500000000001        0.740741        0.12913861313868613        0        
C_FG        C        0.9687500000000001        0.740741        0.12913861313868613        0.2        
C_FG        C        0.0        0.759259        0.12913861313868613        0.2        
C3        C        0.0625        0.759259        0.12913861313868613        0        
C_FG        C        0.125        0.759259        0.12913861313868613        0.2        
C_FG        C        0.1875        0.759259        0.12913861313868613        0.2        
C3        C        0.25        0.759259        0.12913861313868613        0        
C3        C        0.3125        0.759259        0.12913861313868613        0        
C3        C        0.375        0.759259        0.12913861313868613        0        
C3        C        0.4375        0.759259        0.12913861313868613        0        
C3        C        0.5        0.759259        0.12913861313868613        0        
C3        C        0.5625        0.759259        0.12913861313868613        0        
C3        C        0.625        0.759259        0.12913861313868613        0        
C3        C        0.6875        0.759259        0.12913861313868613        0        
C3        C        0.75        0.759259        0.12913861313868613        0        
C_FG        C        0.8125        0.759259        0.12913861313868613        0.2        
C_FG        C        0.875        0.759259        0.12913861313868613        0.2        
C3        C        0.9375        0.759259        0.12913861313868613        0        
C4        C        0.03125        0.703703        0.12913861313868613        0        
C4        C        0.09375        0.703703        0.12913861313868613        0        
C4        C        0.15625        0.703703        0.12913861313868613        0        
C4        C        0.21875        0.703703        0.12913861313868613        0        
C4        C        0.28125        0.703703        0.12913861313868613        0        
C4        C        0.34375        0.703703        0.12913861313868613        0        
C4        C        0.40625        0.703703        0.12913861313868613        0        
C_FG        C        0.46875        0.703703        0.12913861313868613        0.2        
C4        C        0.53125        0.703703        0.12913861313868613        0        
C4        C        0.59375        0.703703        0.12913861313868613        0        
C4        C        0.65625        0.703703        0.12913861313868613        0        
C4        C        0.71875        0.703703        0.12913861313868613        0        
C4        C        0.78125        0.703703        0.12913861313868613        0        
C4        C        0.84375        0.703703        0.12913861313868613        0        
C4        C        0.9062500000000001        0.703703        0.12913861313868613        0        
C_FG        C        0.9687500000000001        0.703703        0.12913861313868613        0.2        
C1        C        0.0        0.796297        0.12913861313868613        0        
C1        C        0.0625        0.796297        0.12913861313868613        0        
C1        C        0.125        0.796297        0.12913861313868613        0        
C1        C        0.1875        0.796297        0.12913861313868613        0        
C1        C        0.25        0.796297        0.12913861313868613        0        
C1        C        0.3125        0.796297        0.12913861313868613        0        
C1        C        0.375        0.796297        0.12913861313868613        0        
C1        C        0.4375        0.796297        0.12913861313868613        0        
C1        C        0.5        0.796297        0.12913861313868613        0        
C1        C        0.5625        0.796297        0.12913861313868613        0        
C1        C        0.625        0.796297        0.12913861313868613        0        
C1        C        0.6875        0.796297        0.12913861313868613        0        
C1        C        0.75        0.796297        0.12913861313868613        0        
C1        C        0.8125        0.796297        0.12913861313868613        0        
C1        C        0.875        0.796297        0.12913861313868613        0        
C1        C        0.9375        0.796297        0.12913861313868613        0        
C2        C        0.03125        0.851852        0.12913861313868613        0        
C2        C        0.09375        0.851852        0.12913861313868613        0        
C2        C        0.15625        0.851852        0.12913861313868613        0        
C2        C        0.21875        0.851852        0.12913861313868613        0        
C2        C        0.28125        0.851852        0.12913861313868613        0        
C2        C        0.34375        0.851852        0.12913861313868613        0        
C2        C        0.40625        0.851852        0.12913861313868613        0        
C2        C        0.46875        0.851852        0.12913861313868613        0        
C2        C        0.53125        0.851852        0.12913861313868613        0        
C2        C        0.59375        0.851852        0.12913861313868613        0        
C2        C        0.65625        0.851852        0.12913861313868613        0        
C2        C        0.71875        0.851852        0.12913861313868613        0        
C2        C        0.78125        0.851852        0.12913861313868613        0        
C2        C        0.84375        0.851852        0.12913861313868613        0        
C2        C        0.9062500000000001        0.851852        0.12913861313868613        0        
C2        C        0.9687500000000001        0.851852        0.12913861313868613        0        
C3        C        0.0        0.87037        0.12913861313868613        0        
C3        C        0.0625        0.87037        0.12913861313868613        0        
C3        C        0.125        0.87037        0.12913861313868613        0        
C3        C        0.1875        0.87037        0.12913861313868613        0        
C3        C        0.25        0.87037        0.12913861313868613        0        
C3        C        0.3125        0.87037        0.12913861313868613        0        
C3        C        0.375        0.87037        0.12913861313868613        0        
C3        C        0.4375        0.87037        0.12913861313868613        0        
C3        C        0.5        0.87037        0.12913861313868613        0        
C3        C        0.5625        0.87037        0.12913861313868613        0        
C3        C        0.625        0.87037        0.12913861313868613        0        
C3        C        0.6875        0.87037        0.12913861313868613        0        
C3        C        0.75        0.87037        0.12913861313868613        0        
C3        C        0.8125        0.87037        0.12913861313868613        0        
C3        C        0.875        0.87037        0.12913861313868613        0        
C3        C        0.9375        0.87037        0.12913861313868613        0        
C4        C        0.03125        0.814814        0.12913861313868613        0        
C4        C        0.09375        0.814814        0.12913861313868613        0        
C4        C        0.15625        0.814814        0.12913861313868613        0        
C4        C        0.21875        0.814814        0.12913861313868613        0        
C4        C        0.28125        0.814814        0.12913861313868613        0        
C4        C        0.34375        0.814814        0.12913861313868613        0        
C4        C        0.40625        0.814814        0.12913861313868613        0        
C4        C        0.46875        0.814814        0.12913861313868613        0        
C4        C        0.53125        0.814814        0.12913861313868613        0        
C4        C        0.59375        0.814814        0.12913861313868613        0        
C4        C        0.65625        0.814814        0.12913861313868613        0        
C4        C        0.71875        0.814814        0.12913861313868613        0        
C4        C        0.78125        0.814814        0.12913861313868613        0        
C4        C        0.84375        0.814814        0.12913861313868613        0        
C4        C        0.9062500000000001        0.814814        0.12913861313868613        0        
C4        C        0.9687500000000001        0.814814        0.12913861313868613        0        
C1        C        0.0        0.907408        0.12913861313868613        0        
C1        C        0.0625        0.907408        0.12913861313868613        0        
C1        C        0.125        0.907408        0.12913861313868613        0        
C1        C        0.1875        0.907408        0.12913861313868613        0        
C1        C        0.25        0.907408        0.12913861313868613        0        
C1        C        0.3125        0.907408        0.12913861313868613        0        
C1        C        0.375        0.907408        0.12913861313868613        0        
C1        C        0.4375        0.907408        0.12913861313868613        0        
C1        C        0.5        0.907408        0.12913861313868613        0        
C1        C        0.5625        0.907408        0.12913861313868613        0        
C1        C        0.625        0.907408        0.12913861313868613        0        
C1        C        0.6875        0.907408        0.12913861313868613        0        
C1        C        0.75        0.907408        0.12913861313868613        0        
C1        C        0.8125        0.907408        0.12913861313868613        0        
C1        C        0.875        0.907408        0.12913861313868613        0        
C1        C        0.9375        0.907408        0.12913861313868613        0        
C2        C        0.03125        0.962963        0.12913861313868613        0        
C2        C        0.09375        0.962963        0.12913861313868613        0        
C2        C        0.15625        0.962963        0.12913861313868613        0        
C2        C        0.21875        0.962963        0.12913861313868613        0        
C2        C        0.28125        0.962963        0.12913861313868613        0        
C2        C        0.34375        0.962963        0.12913861313868613        0        
C2        C        0.40625        0.962963        0.12913861313868613        0        
C2        C        0.46875        0.962963        0.12913861313868613        0        
C2        C        0.53125        0.962963        0.12913861313868613        0        
C2        C        0.59375        0.962963        0.12913861313868613        0        
C2        C        0.65625        0.962963        0.12913861313868613        0        
C2        C        0.71875        0.962963        0.12913861313868613        0        
C2        C        0.78125        0.962963        0.12913861313868613        0        
C2        C        0.84375        0.962963        0.12913861313868613        0        
C2        C        0.9062500000000001        0.962963        0.12913861313868613        0        
C2        C        0.9687500000000001        0.962963        0.12913861313868613        0        
C3        C        0.0        0.9814809999999999        0.12913861313868613        0        
C3        C        0.0625        0.9814809999999999        0.12913861313868613        0        
C3        C        0.125        0.9814809999999999        0.12913861313868613        0        
C3        C        0.1875        0.9814809999999999        0.12913861313868613        0        
C3        C        0.25        0.9814809999999999        0.12913861313868613        0        
C3        C        0.3125        0.9814809999999999        0.12913861313868613        0        
C3        C        0.375        0.9814809999999999        0.12913861313868613        0        
C3        C        0.4375        0.9814809999999999        0.12913861313868613        0        
C3        C        0.5        0.9814809999999999        0.12913861313868613        0        
C3        C        0.5625        0.9814809999999999        0.12913861313868613        0        
C3        C        0.625        0.9814809999999999        0.12913861313868613        0        
C3        C        0.6875        0.9814809999999999        0.12913861313868613        0        
C3        C        0.75        0.9814809999999999        0.12913861313868613        0        
C3        C        0.8125        0.9814809999999999        0.12913861313868613        0        
C3        C        0.875        0.9814809999999999        0.12913861313868613        0        
C3        C        0.9375        0.9814809999999999        0.12913861313868613        0        
C4        C        0.03125        0.925925        0.12913861313868613        0        
C4        C        0.09375        0.925925        0.12913861313868613        0        
C4        C        0.15625        0.925925        0.12913861313868613        0        
C4        C        0.21875        0.925925        0.12913861313868613        0        
C4        C        0.28125        0.925925        0.12913861313868613        0        
C4        C        0.34375        0.925925        0.12913861313868613        0        
C4        C        0.40625        0.925925        0.12913861313868613        0        
C4        C        0.46875        0.925925        0.12913861313868613        0        
C4        C        0.53125        0.925925        0.12913861313868613        0        
C4        C        0.59375        0.925925        0.12913861313868613        0        
C4        C        0.65625        0.925925        0.12913861313868613        0        
C4        C        0.71875        0.925925        0.12913861313868613        0        
C4        C        0.78125        0.925925        0.12913861313868613        0        
C4        C        0.84375        0.925925        0.12913861313868613        0        
C4        C        0.9062500000000001        0.925925        0.12913861313868613        0        
C4        C        0.9687500000000001        0.925925        0.12913861313868613        0        
C1        C        0.0        0.018519        0.3736641605839415        0        
C2        C        0.03125        0.074075        0.3736641605839415        0        
C3        C        0.0        0.092592        0.3736641605839415        0        
C4        C        0.03125        0.037037        0.3736641605839415        0        
C1        C        0.0        0.12963        0.3736641605839415        0        
C2        C        0.03125        0.185185        0.3736641605839415        0        
C3        C        0.0        0.203703        0.3736641605839415        0        
C4        C        0.03125        0.148148        0.3736641605839415        0        
C1        C        0.0        0.24074099999999998        0.3736641605839415        0        
C2        C        0.03125        0.296297        0.3736641605839415        0        
C3        C        0.0        0.314815        0.3736641605839415        0        
C4        C        0.03125        0.259259        0.3736641605839415        0        
C1        C        0.0        0.351852        0.3736641605839415        0        
C2        C        0.03125        0.407408        0.3736641605839415        0        
C3        C        0.0        0.425925        0.3736641605839415        0        
C4        C        0.03125        0.37037        0.3736641605839415        0        
C1        C        0.0        0.46296300000000007        0.3736641605839415        0        
C2        C        0.03125        0.518519        0.3736641605839415        0        
C3        C        0.0        0.537037        0.3736641605839415        0        
C4        C        0.03125        0.481481        0.3736641605839415        0        
C1        C        0.0        0.574075        0.3736641605839415        0        
C2        C        0.03125        0.62963        0.3736641605839415        0        
C3        C        0.0        0.648148        0.3736641605839415        0        
C4        C        0.03125        0.592592        0.3736641605839415        0        
C1        C        0.0625        0.018519        0.3736641605839415        0        
C2        C        0.09375        0.074075        0.3736641605839415        0        
C3        C        0.0625        0.092592        0.3736641605839415        0        
C4        C        0.09375        0.037037        0.3736641605839415        0        
C1        C        0.0625        0.12963        0.3736641605839415        0        
C2        C        0.09375        0.185185        0.3736641605839415        0        
C3        C        0.0625        0.203703        0.3736641605839415        0        
C4        C        0.09375        0.148148        0.3736641605839415        0        
C1        C        0.0625        0.24074099999999998        0.3736641605839415        0        
C2        C        0.09375        0.296297        0.3736641605839415        0        
C3        C        0.0625        0.314815        0.3736641605839415        0        
C4        C        0.09375        0.259259        0.3736641605839415        0        
C1        C        0.0625        0.351852        0.3736641605839415        0        
C2        C        0.09375        0.407408        0.3736641605839415        0        
C3        C        0.0625        0.425925        0.3736641605839415        0        
C4        C        0.09375        0.37037        0.3736641605839415        0        
C1        C        0.0625        0.46296300000000007        0.3736641605839415        0        
C2        C        0.09375        0.518519        0.3736641605839415        0        
C3        C        0.0625        0.537037        0.3736641605839415        0        
C4        C        0.09375        0.481481        0.3736641605839415        0        
C1        C        0.0625        0.574075        0.3736641605839415        0        
C2        C        0.09375        0.62963        0.3736641605839415        0        
C3        C        0.0625        0.648148        0.3736641605839415        0        
C4        C        0.09375        0.592592        0.3736641605839415        0        
C1        C        0.125        0.018519        0.3736641605839415        0        
C2        C        0.15625        0.074075        0.3736641605839415        0        
C3        C        0.125        0.092592        0.3736641605839415        0        
C4        C        0.15625        0.037037        0.3736641605839415        0        
C1        C        0.125        0.12963        0.3736641605839415        0        
C2        C        0.15625        0.185185        0.3736641605839415        0        
C3        C        0.125        0.203703        0.3736641605839415        0        
C4        C        0.15625        0.148148        0.3736641605839415        0        
C1        C        0.125        0.24074099999999998        0.3736641605839415        0        
C2        C        0.15625        0.296297        0.3736641605839415        0        
C3        C        0.125        0.314815        0.3736641605839415        0        
C4        C        0.15625        0.259259        0.3736641605839415        0        
C1        C        0.125        0.351852        0.3736641605839415        0        
C2        C        0.15625        0.407408        0.3736641605839415        0        
C3        C        0.125        0.425925        0.3736641605839415        0        
C4        C        0.15625        0.37037        0.3736641605839415        0        
C1        C        0.125        0.46296300000000007        0.3736641605839415        0        
C2        C        0.15625        0.518519        0.3736641605839415        0        
C3        C        0.125        0.537037        0.3736641605839415        0        
C4        C        0.15625        0.481481        0.3736641605839415        0        
C1        C        0.125        0.574075        0.3736641605839415        0        
C2        C        0.15625        0.62963        0.3736641605839415        0        
C3        C        0.125        0.648148        0.3736641605839415        0        
C4        C        0.15625        0.592592        0.3736641605839415        0        
C1        C        0.1875        0.018519        0.3736641605839415        0        
C2        C        0.21875        0.074075        0.3736641605839415        0        
C3        C        0.1875        0.092592        0.3736641605839415        0        
C4        C        0.21875        0.037037        0.3736641605839415        0        
C1        C        0.1875        0.12963        0.3736641605839415        0        
C2        C        0.21875        0.185185        0.3736641605839415        0        
C3        C        0.1875        0.203703        0.3736641605839415        0        
C4        C        0.21875        0.148148        0.3736641605839415        0        
C1        C        0.1875        0.24074099999999998        0.3736641605839415        0        
C2        C        0.21875        0.296297        0.3736641605839415        0        
C3        C        0.1875        0.314815        0.3736641605839415        0        
C4        C        0.21875        0.259259        0.3736641605839415        0        
C1        C        0.1875        0.351852        0.3736641605839415        0        
C2        C        0.21875        0.407408        0.3736641605839415        0        
C3        C        0.1875        0.425925        0.3736641605839415        0        
C4        C        0.21875        0.37037        0.3736641605839415        0        
C1        C        0.1875        0.46296300000000007        0.3736641605839415        0        
C2        C        0.21875        0.518519        0.3736641605839415        0        
C3        C        0.1875        0.537037        0.3736641605839415        0        
C4        C        0.21875        0.481481        0.3736641605839415        0        
C1        C        0.1875        0.574075        0.3736641605839415        0        
C2        C        0.21875        0.62963        0.3736641605839415        0        
C3        C        0.1875        0.648148        0.3736641605839415        0        
C4        C        0.21875        0.592592        0.3736641605839415        0        
C1        C        0.25        0.018519        0.3736641605839415        0        
C2        C        0.28125        0.074075        0.3736641605839415        0        
C3        C        0.25        0.092592        0.3736641605839415        0        
C4        C        0.28125        0.037037        0.3736641605839415        0        
C1        C        0.25        0.12963        0.3736641605839415        0        
C2        C        0.28125        0.185185        0.3736641605839415        0        
C3        C        0.25        0.203703        0.3736641605839415        0        
C4        C        0.28125        0.148148        0.3736641605839415        0        
C1        C        0.25        0.24074099999999998        0.3736641605839415        0        
C2        C        0.28125        0.296297        0.3736641605839415        0        
C3        C        0.25        0.314815        0.3736641605839415        0        
C4        C        0.28125        0.259259        0.3736641605839415        0        
C1        C        0.25        0.351852        0.3736641605839415        0        
C2        C        0.28125        0.407408        0.3736641605839415        0        
C3        C        0.25        0.425925        0.3736641605839415        0        
C4        C        0.28125        0.37037        0.3736641605839415        0        
C1        C        0.25        0.46296300000000007        0.3736641605839415        0        
C2        C        0.28125        0.518519        0.3736641605839415        0        
C3        C        0.25        0.537037        0.3736641605839415        0        
C4        C        0.28125        0.481481        0.3736641605839415        0        
C1        C        0.25        0.574075        0.3736641605839415        0        
C2        C        0.28125        0.62963        0.3736641605839415        0        
C3        C        0.25        0.648148        0.3736641605839415        0        
C4        C        0.28125        0.592592        0.3736641605839415        0        
C1        C        0.3125        0.018519        0.3736641605839415        0        
C2        C        0.34375        0.074075        0.3736641605839415        0        
C3        C        0.3125        0.092592        0.3736641605839415        0        
C4        C        0.34375        0.037037        0.3736641605839415        0        
C1        C        0.3125        0.12963        0.3736641605839415        0        
C2        C        0.34375        0.185185        0.3736641605839415        0        
C3        C        0.3125        0.203703        0.3736641605839415        0        
C4        C        0.34375        0.148148        0.3736641605839415        0        
C1        C        0.3125        0.24074099999999998        0.3736641605839415        0        
C2        C        0.34375        0.296297        0.3736641605839415        0        
C3        C        0.3125        0.314815        0.3736641605839415        0        
C4        C        0.34375        0.259259        0.3736641605839415        0        
C1        C        0.3125        0.351852        0.3736641605839415        0        
C2        C        0.34375        0.407408        0.3736641605839415        0        
C3        C        0.3125        0.425925        0.3736641605839415        0        
C4        C        0.34375        0.37037        0.3736641605839415        0        
C1        C        0.3125        0.46296300000000007        0.3736641605839415        0        
C2        C        0.34375        0.518519        0.3736641605839415        0        
C3        C        0.3125        0.537037        0.3736641605839415        0        
C4        C        0.34375        0.481481        0.3736641605839415        0        
C1        C        0.3125        0.574075        0.3736641605839415        0        
C2        C        0.34375        0.62963        0.3736641605839415        0        
C3        C        0.3125        0.648148        0.3736641605839415        0        
C4        C        0.34375        0.592592        0.3736641605839415        0        
C1        C        0.375        0.018519        0.3736641605839415        0        
C2        C        0.40625        0.074075        0.3736641605839415        0        
C3        C        0.375        0.092592        0.3736641605839415        0        
C4        C        0.40625        0.037037        0.3736641605839415        0        
C1        C        0.375        0.12963        0.3736641605839415        0        
C2        C        0.40625        0.185185        0.3736641605839415        0        
C3        C        0.375        0.203703        0.3736641605839415        0        
C4        C        0.40625        0.148148        0.3736641605839415        0        
C1        C        0.375        0.24074099999999998        0.3736641605839415        0        
C2        C        0.40625        0.296297        0.3736641605839415        0        
C3        C        0.375        0.314815        0.3736641605839415        0        
C4        C        0.40625        0.259259        0.3736641605839415        0        
C1        C        0.375        0.351852        0.3736641605839415        0        
C2        C        0.40625        0.407408        0.3736641605839415        0        
C3        C        0.375        0.425925        0.3736641605839415        0        
C4        C        0.40625        0.37037        0.3736641605839415        0        
C1        C        0.375        0.46296300000000007        0.3736641605839415        0        
C2        C        0.40625        0.518519        0.3736641605839415        0        
C3        C        0.375        0.537037        0.3736641605839415        0        
C4        C        0.40625        0.481481        0.3736641605839415        0        
C1        C        0.375        0.574075        0.3736641605839415        0        
C2        C        0.40625        0.62963        0.3736641605839415        0        
C3        C        0.375        0.648148        0.3736641605839415        0        
C4        C        0.40625        0.592592        0.3736641605839415        0        
C1        C        0.4375        0.018519        0.3736641605839415        0        
C2        C        0.46875        0.074075        0.3736641605839415        0        
C3        C        0.4375        0.092592        0.3736641605839415        0        
C4        C        0.46875        0.037037        0.3736641605839415        0        
C1        C        0.4375        0.12963        0.3736641605839415        0        
C2        C        0.46875        0.185185        0.3736641605839415        0        
C3        C        0.4375        0.203703        0.3736641605839415        0        
C4        C        0.46875        0.148148        0.3736641605839415        0        
C1        C        0.4375        0.24074099999999998        0.3736641605839415        0        
C2        C        0.46875        0.296297        0.3736641605839415        0        
C3        C        0.4375        0.314815        0.3736641605839415        0        
C4        C        0.46875        0.259259        0.3736641605839415        0        
C1        C        0.4375        0.351852        0.3736641605839415        0        
C2        C        0.46875        0.407408        0.3736641605839415        0        
C3        C        0.4375        0.425925        0.3736641605839415        0        
C4        C        0.46875        0.37037        0.3736641605839415        0        
C1        C        0.4375        0.46296300000000007        0.3736641605839415        0        
C2        C        0.46875        0.518519        0.3736641605839415        0        
C3        C        0.4375        0.537037        0.3736641605839415        0        
C4        C        0.46875        0.481481        0.3736641605839415        0        
C1        C        0.4375        0.574075        0.3736641605839415        0        
C2        C        0.46875        0.62963        0.3736641605839415        0        
C3        C        0.4375        0.648148        0.3736641605839415        0        
C4        C        0.46875        0.592592        0.3736641605839415        0        
C1        C        0.5        0.018519        0.3736641605839415        0        
C2        C        0.53125        0.074075        0.3736641605839415        0        
C3        C        0.5        0.092592        0.3736641605839415        0        
C4        C        0.53125        0.037037        0.3736641605839415        0        
C1        C        0.5        0.12963        0.3736641605839415        0        
C2        C        0.53125        0.185185        0.3736641605839415        0        
C3        C        0.5        0.203703        0.3736641605839415        0        
C4        C        0.53125        0.148148        0.3736641605839415        0        
C1        C        0.5        0.24074099999999998        0.3736641605839415        0        
C2        C        0.53125        0.296297        0.3736641605839415        0        
C3        C        0.5        0.314815        0.3736641605839415        0        
C4        C        0.53125        0.259259        0.3736641605839415        0        
C1        C        0.5        0.351852        0.3736641605839415        0        
C2        C        0.53125        0.407408        0.3736641605839415        0        
C3        C        0.5        0.425925        0.3736641605839415        0        
C4        C        0.53125        0.37037        0.3736641605839415        0        
C1        C        0.5        0.46296300000000007        0.3736641605839415        0        
C2        C        0.53125        0.518519        0.3736641605839415        0        
C3        C        0.5        0.537037        0.3736641605839415        0        
C4        C        0.53125        0.481481        0.3736641605839415        0        
C1        C        0.5        0.574075        0.3736641605839415        0        
C2        C        0.53125        0.62963        0.3736641605839415        0        
C3        C        0.5        0.648148        0.3736641605839415        0        
C4        C        0.53125        0.592592        0.3736641605839415        0        
C1        C        0.5625        0.018519        0.3736641605839415        0        
C2        C        0.59375        0.074075        0.3736641605839415        0        
C3        C        0.5625        0.092592        0.3736641605839415        0        
C4        C        0.59375        0.037037        0.3736641605839415        0        
C1        C        0.5625        0.12963        0.3736641605839415        0        
C2        C        0.59375        0.185185        0.3736641605839415        0        
C3        C        0.5625        0.203703        0.3736641605839415        0        
C4        C        0.59375        0.148148        0.3736641605839415        0        
C1        C        0.5625        0.24074099999999998        0.3736641605839415        0        
C2        C        0.59375        0.296297        0.3736641605839415        0        
C3        C        0.5625        0.314815        0.3736641605839415        0        
C4        C        0.59375        0.259259        0.3736641605839415        0        
C1        C        0.5625        0.351852        0.3736641605839415        0        
C2        C        0.59375        0.407408        0.3736641605839415        0        
C3        C        0.5625        0.425925        0.3736641605839415        0        
C4        C        0.59375        0.37037        0.3736641605839415        0        
C1        C        0.5625        0.46296300000000007        0.3736641605839415        0        
C2        C        0.59375        0.518519        0.3736641605839415        0        
C3        C        0.5625        0.537037        0.3736641605839415        0        
C4        C        0.59375        0.481481        0.3736641605839415        0        
C1        C        0.5625        0.574075        0.3736641605839415        0        
C2        C        0.59375        0.62963        0.3736641605839415        0        
C3        C        0.5625        0.648148        0.3736641605839415        0        
C4        C        0.59375        0.592592        0.3736641605839415        0        
C1        C        0.625        0.018519        0.3736641605839415        0        
C2        C        0.65625        0.074075        0.3736641605839415        0        
C3        C        0.625        0.092592        0.3736641605839415        0        
C4        C        0.65625        0.037037        0.3736641605839415        0        
C1        C        0.625        0.12963        0.3736641605839415        0        
C2        C        0.65625        0.185185        0.3736641605839415        0        
C3        C        0.625        0.203703        0.3736641605839415        0        
C4        C        0.65625        0.148148        0.3736641605839415        0        
C1        C        0.625        0.24074099999999998        0.3736641605839415        0        
C2        C        0.65625        0.296297        0.3736641605839415        0        
C3        C        0.625        0.314815        0.3736641605839415        0        
C4        C        0.65625        0.259259        0.3736641605839415        0        
C1        C        0.625        0.351852        0.3736641605839415        0        
C2        C        0.65625        0.407408        0.3736641605839415        0        
C3        C        0.625        0.425925        0.3736641605839415        0        
C4        C        0.65625        0.37037        0.3736641605839415        0        
C1        C        0.625        0.46296300000000007        0.3736641605839415        0        
C2        C        0.65625        0.518519        0.3736641605839415        0        
C3        C        0.625        0.537037        0.3736641605839415        0        
C4        C        0.65625        0.481481        0.3736641605839415        0        
C1        C        0.625        0.574075        0.3736641605839415        0        
C2        C        0.65625        0.62963        0.3736641605839415        0        
C3        C        0.625        0.648148        0.3736641605839415        0        
C4        C        0.65625        0.592592        0.3736641605839415        0        
C1        C        0.6875        0.018519        0.3736641605839415        0        
C2        C        0.71875        0.074075        0.3736641605839415        0        
C3        C        0.6875        0.092592        0.3736641605839415        0        
C4        C        0.71875        0.037037        0.3736641605839415        0        
C1        C        0.6875        0.12963        0.3736641605839415        0        
C2        C        0.71875        0.185185        0.3736641605839415        0        
C3        C        0.6875        0.203703        0.3736641605839415        0        
C4        C        0.71875        0.148148        0.3736641605839415        0        
C1        C        0.6875        0.24074099999999998        0.3736641605839415        0        
C2        C        0.71875        0.296297        0.3736641605839415        0        
C3        C        0.6875        0.314815        0.3736641605839415        0        
C4        C        0.71875        0.259259        0.3736641605839415        0        
C1        C        0.6875        0.351852        0.3736641605839415        0        
C2        C        0.71875        0.407408        0.3736641605839415        0        
C3        C        0.6875        0.425925        0.3736641605839415        0        
C4        C        0.71875        0.37037        0.3736641605839415        0        
C1        C        0.6875        0.46296300000000007        0.3736641605839415        0        
C2        C        0.71875        0.518519        0.3736641605839415        0        
C3        C        0.6875        0.537037        0.3736641605839415        0        
C4        C        0.71875        0.481481        0.3736641605839415        0        
C1        C        0.6875        0.574075        0.3736641605839415        0        
C2        C        0.71875        0.62963        0.3736641605839415        0        
C3        C        0.6875        0.648148        0.3736641605839415        0        
C4        C        0.71875        0.592592        0.3736641605839415        0        
C1        C        0.75        0.018519        0.3736641605839415        0        
C2        C        0.78125        0.074075        0.3736641605839415        0        
C3        C        0.75        0.092592        0.3736641605839415        0        
C4        C        0.78125        0.037037        0.3736641605839415        0        
C1        C        0.75        0.12963        0.3736641605839415        0        
C2        C        0.78125        0.185185        0.3736641605839415        0        
C3        C        0.75        0.203703        0.3736641605839415        0        
C4        C        0.78125        0.148148        0.3736641605839415        0        
C1        C        0.75        0.24074099999999998        0.3736641605839415        0        
C2        C        0.78125        0.296297        0.3736641605839415        0        
C3        C        0.75        0.314815        0.3736641605839415        0        
C4        C        0.78125        0.259259        0.3736641605839415        0        
C1        C        0.75        0.351852        0.3736641605839415        0        
C2        C        0.78125        0.407408        0.3736641605839415        0        
C3        C        0.75        0.425925        0.3736641605839415        0        
C4        C        0.78125        0.37037        0.3736641605839415        0        
C1        C        0.75        0.46296300000000007        0.3736641605839415        0        
C2        C        0.78125        0.518519        0.3736641605839415        0        
C3        C        0.75        0.537037        0.3736641605839415        0        
C4        C        0.78125        0.481481        0.3736641605839415        0        
C1        C        0.75        0.574075        0.3736641605839415        0        
C2        C        0.78125        0.62963        0.3736641605839415        0        
C3        C        0.75        0.648148        0.3736641605839415        0        
C4        C        0.78125        0.592592        0.3736641605839415        0        
C1        C        0.8125        0.018519        0.3736641605839415        0        
C2        C        0.84375        0.074075        0.3736641605839415        0        
C3        C        0.8125        0.092592        0.3736641605839415        0        
C4        C        0.84375        0.037037        0.3736641605839415        0        
C1        C        0.8125        0.12963        0.3736641605839415        0        
C2        C        0.84375        0.185185        0.3736641605839415        0        
C3        C        0.8125        0.203703        0.3736641605839415        0        
C4        C        0.84375        0.148148        0.3736641605839415        0        
C1        C        0.8125        0.24074099999999998        0.3736641605839415        0        
C2        C        0.84375        0.296297        0.3736641605839415        0        
C3        C        0.8125        0.314815        0.3736641605839415        0        
C4        C        0.84375        0.259259        0.3736641605839415        0        
C1        C        0.8125        0.351852        0.3736641605839415        0        
C2        C        0.84375        0.407408        0.3736641605839415        0        
C3        C        0.8125        0.425925        0.3736641605839415        0        
C4        C        0.84375        0.37037        0.3736641605839415        0        
C1        C        0.8125        0.46296300000000007        0.3736641605839415        0        
C2        C        0.84375        0.518519        0.3736641605839415        0        
C3        C        0.8125        0.537037        0.3736641605839415        0        
C4        C        0.84375        0.481481        0.3736641605839415        0        
C1        C        0.8125        0.574075        0.3736641605839415        0        
C2        C        0.84375        0.62963        0.3736641605839415        0        
C3        C        0.8125        0.648148        0.3736641605839415        0        
C4        C        0.84375        0.592592        0.3736641605839415        0        
C1        C        0.875        0.018519        0.3736641605839415        0        
C2        C        0.9062500000000001        0.074075        0.3736641605839415        0        
C3        C        0.875        0.092592        0.3736641605839415        0        
C4        C        0.9062500000000001        0.037037        0.3736641605839415        0        
C1        C        0.875        0.12963        0.3736641605839415        0        
C2        C        0.9062500000000001        0.185185        0.3736641605839415        0        
C3        C        0.875        0.203703        0.3736641605839415        0        
C4        C        0.9062500000000001        0.148148        0.3736641605839415        0        
C1        C        0.875        0.24074099999999998        0.3736641605839415        0        
C2        C        0.9062500000000001        0.296297        0.3736641605839415        0        
C3        C        0.875        0.314815        0.3736641605839415        0        
C4        C        0.9062500000000001        0.259259        0.3736641605839415        0        
C1        C        0.875        0.351852        0.3736641605839415        0        
C2        C        0.9062500000000001        0.407408        0.3736641605839415        0        
C3        C        0.875        0.425925        0.3736641605839415        0        
C4        C        0.9062500000000001        0.37037        0.3736641605839415        0        
C1        C        0.875        0.46296300000000007        0.3736641605839415        0        
C2        C        0.9062500000000001        0.518519        0.3736641605839415        0        
C3        C        0.875        0.537037        0.3736641605839415        0        
C4        C        0.9062500000000001        0.481481        0.3736641605839415        0        
C1        C        0.875        0.574075        0.3736641605839415        0        
C2        C        0.9062500000000001        0.62963        0.3736641605839415        0        
C3        C        0.875        0.648148        0.3736641605839415        0        
C4        C        0.9062500000000001        0.592592        0.3736641605839415        0        
C1        C        0.9375        0.018519        0.3736641605839415        0        
C2        C        0.9687500000000001        0.074075        0.3736641605839415        0        
C3        C        0.9375        0.092592        0.3736641605839415        0        
C4        C        0.9687500000000001        0.037037        0.3736641605839415        0        
C1        C        0.9375        0.12963        0.3736641605839415        0        
C2        C        0.9687500000000001        0.185185        0.3736641605839415        0        
C3        C        0.9375        0.203703        0.3736641605839415        0        
C4        C        0.9687500000000001        0.148148        0.3736641605839415        0        
C1        C        0.9375        0.24074099999999998        0.3736641605839415        0        
C2        C        0.9687500000000001        0.296297        0.3736641605839415        0        
C3        C        0.9375        0.314815        0.3736641605839415        0        
C4        C        0.9687500000000001        0.259259        0.3736641605839415        0        
C1        C        0.9375        0.351852        0.3736641605839415        0        
C2        C        0.9687500000000001        0.407408        0.3736641605839415        0        
C3        C        0.9375        0.425925        0.3736641605839415        0        
C4        C        0.9687500000000001        0.37037        0.3736641605839415        0        
C1        C        0.9375        0.46296300000000007        0.3736641605839415        0        
C2        C        0.9687500000000001        0.518519        0.3736641605839415        0        
C3        C        0.9375        0.537037        0.3736641605839415        0        
C4        C        0.9687500000000001        0.481481        0.3736641605839415        0        
C1        C        0.9375        0.574075        0.3736641605839415        0        
C2        C        0.9687500000000001        0.62963        0.3736641605839415        0        
C3        C        0.9375        0.648148        0.3736641605839415        0        
C4        C        0.9687500000000001        0.592592        0.3736641605839415        0        
C1        C        0.0        0.685186        0.3736641605839415        0        
C1        C        0.0625        0.685186        0.3736641605839415        0        
C1        C        0.125        0.685186        0.3736641605839415        0        
C1        C        0.1875        0.685186        0.3736641605839415        0        
C1        C        0.25        0.685186        0.3736641605839415        0        
C1        C        0.3125        0.685186        0.3736641605839415        0        
C1        C        0.375        0.685186        0.3736641605839415        0        
C1        C        0.4375        0.685186        0.3736641605839415        0        
C1        C        0.5        0.685186        0.3736641605839415        0        
C1        C        0.5625        0.685186        0.3736641605839415        0        
C1        C        0.625        0.685186        0.3736641605839415        0        
C1        C        0.6875        0.685186        0.3736641605839415        0        
C1        C        0.75        0.685186        0.3736641605839415        0        
C1        C        0.8125        0.685186        0.3736641605839415        0        
C1        C        0.875        0.685186        0.3736641605839415        0        
C1        C        0.9375        0.685186        0.3736641605839415        0        
C2        C        0.03125        0.740741        0.3736641605839415        0        
C2        C        0.09375        0.740741        0.3736641605839415        0        
C2        C        0.15625        0.740741        0.3736641605839415        0        
C2        C        0.21875        0.740741        0.3736641605839415        0        
C2        C        0.28125        0.740741        0.3736641605839415        0        
C2        C        0.34375        0.740741        0.3736641605839415        0        
C2        C        0.40625        0.740741        0.3736641605839415        0        
C2        C        0.46875        0.740741        0.3736641605839415        0        
C2        C        0.53125        0.740741        0.3736641605839415        0        
C2        C        0.59375        0.740741        0.3736641605839415        0        
C2        C        0.65625        0.740741        0.3736641605839415        0        
C2        C        0.71875        0.740741        0.3736641605839415        0        
C2        C        0.78125        0.740741        0.3736641605839415        0        
C2        C        0.84375        0.740741        0.3736641605839415        0        
C2        C        0.9062500000000001        0.740741        0.3736641605839415        0        
C2        C        0.9687500000000001        0.740741        0.3736641605839415        0        
C3        C        0.0        0.759259        0.3736641605839415        0        
C3        C        0.0625        0.759259        0.3736641605839415        0        
C3        C        0.125        0.759259        0.3736641605839415        0        
C3        C        0.1875        0.759259        0.3736641605839415        0        
C3        C        0.25        0.759259        0.3736641605839415        0        
C3        C        0.3125        0.759259        0.3736641605839415        0        
C3        C        0.375        0.759259        0.3736641605839415        0        
C3        C        0.4375        0.759259        0.3736641605839415        0        
C3        C        0.5        0.759259        0.3736641605839415        0        
C3        C        0.5625        0.759259        0.3736641605839415        0        
C3        C        0.625        0.759259        0.3736641605839415        0        
C3        C        0.6875        0.759259        0.3736641605839415        0        
C3        C        0.75        0.759259        0.3736641605839415        0        
C3        C        0.8125        0.759259        0.3736641605839415        0        
C3        C        0.875        0.759259        0.3736641605839415        0        
C3        C        0.9375        0.759259        0.3736641605839415        0        
C4        C        0.03125        0.703703        0.3736641605839415        0        
C4        C        0.09375        0.703703        0.3736641605839415        0        
C4        C        0.15625        0.703703        0.3736641605839415        0        
C4        C        0.21875        0.703703        0.3736641605839415        0        
C4        C        0.28125        0.703703        0.3736641605839415        0        
C4        C        0.34375        0.703703        0.3736641605839415        0        
C4        C        0.40625        0.703703        0.3736641605839415        0        
C4        C        0.46875        0.703703        0.3736641605839415        0        
C4        C        0.53125        0.703703        0.3736641605839415        0        
C4        C        0.59375        0.703703        0.3736641605839415        0        
C4        C        0.65625        0.703703        0.3736641605839415        0        
C4        C        0.71875        0.703703        0.3736641605839415        0        
C4        C        0.78125        0.703703        0.3736641605839415        0        
C4        C        0.84375        0.703703        0.3736641605839415        0        
C4        C        0.9062500000000001        0.703703        0.3736641605839415        0        
C4        C        0.9687500000000001        0.703703        0.3736641605839415        0        
C1        C        0.0        0.796297        0.3736641605839415        0        
C1        C        0.0625        0.796297        0.3736641605839415        0        
C1        C        0.125        0.796297        0.3736641605839415        0        
C1        C        0.1875        0.796297        0.3736641605839415        0        
C1        C        0.25        0.796297        0.3736641605839415        0        
C1        C        0.3125        0.796297        0.3736641605839415        0        
C1        C        0.375        0.796297        0.3736641605839415        0        
C1        C        0.4375        0.796297        0.3736641605839415        0        
C1        C        0.5        0.796297        0.3736641605839415        0        
C1        C        0.5625        0.796297        0.3736641605839415        0        
C1        C        0.625        0.796297        0.3736641605839415        0        
C1        C        0.6875        0.796297        0.3736641605839415        0        
C1        C        0.75        0.796297        0.3736641605839415        0        
C1        C        0.8125        0.796297        0.3736641605839415        0        
C1        C        0.875        0.796297        0.3736641605839415        0        
C1        C        0.9375        0.796297        0.3736641605839415        0        
C2        C        0.03125        0.851852        0.3736641605839415        0        
C2        C        0.09375        0.851852        0.3736641605839415        0        
C2        C        0.15625        0.851852        0.3736641605839415        0        
C2        C        0.21875        0.851852        0.3736641605839415        0        
C2        C        0.28125        0.851852        0.3736641605839415        0        
C2        C        0.34375        0.851852        0.3736641605839415        0        
C2        C        0.40625        0.851852        0.3736641605839415        0        
C2        C        0.46875        0.851852        0.3736641605839415        0        
C2        C        0.53125        0.851852        0.3736641605839415        0        
C2        C        0.59375        0.851852        0.3736641605839415        0        
C2        C        0.65625        0.851852        0.3736641605839415        0        
C2        C        0.71875        0.851852        0.3736641605839415        0        
C2        C        0.78125        0.851852        0.3736641605839415        0        
C2        C        0.84375        0.851852        0.3736641605839415        0        
C2        C        0.9062500000000001        0.851852        0.3736641605839415        0        
C2        C        0.9687500000000001        0.851852        0.3736641605839415        0        
C3        C        0.0        0.87037        0.3736641605839415        0        
C3        C        0.0625        0.87037        0.3736641605839415        0        
C3        C        0.125        0.87037        0.3736641605839415        0        
C3        C        0.1875        0.87037        0.3736641605839415        0        
C3        C        0.25        0.87037        0.3736641605839415        0        
C3        C        0.3125        0.87037        0.3736641605839415        0        
C3        C        0.375        0.87037        0.3736641605839415        0        
C3        C        0.4375        0.87037        0.3736641605839415        0        
C3        C        0.5        0.87037        0.3736641605839415        0        
C3        C        0.5625        0.87037        0.3736641605839415        0        
C3        C        0.625        0.87037        0.3736641605839415        0        
C3        C        0.6875        0.87037        0.3736641605839415        0        
C3        C        0.75        0.87037        0.3736641605839415        0        
C3        C        0.8125        0.87037        0.3736641605839415        0        
C3        C        0.875        0.87037        0.3736641605839415        0        
C3        C        0.9375        0.87037        0.3736641605839415        0        
C4        C        0.03125        0.814814        0.3736641605839415        0        
C4        C        0.09375        0.814814        0.3736641605839415        0        
C4        C        0.15625        0.814814        0.3736641605839415        0        
C4        C        0.21875        0.814814        0.3736641605839415        0        
C4        C        0.28125        0.814814        0.3736641605839415        0        
C4        C        0.34375        0.814814        0.3736641605839415        0        
C4        C        0.40625        0.814814        0.3736641605839415        0        
C4        C        0.46875        0.814814        0.3736641605839415        0        
C4        C        0.53125        0.814814        0.3736641605839415        0        
C4        C        0.59375        0.814814        0.3736641605839415        0        
C4        C        0.65625        0.814814        0.3736641605839415        0        
C4        C        0.71875        0.814814        0.3736641605839415        0        
C4        C        0.78125        0.814814        0.3736641605839415        0        
C4        C        0.84375        0.814814        0.3736641605839415        0        
C4        C        0.9062500000000001        0.814814        0.3736641605839415        0        
C4        C        0.9687500000000001        0.814814        0.3736641605839415        0        
C1        C        0.0        0.907408        0.3736641605839415        0        
C1        C        0.0625        0.907408        0.3736641605839415        0        
C1        C        0.125        0.907408        0.3736641605839415        0        
C1        C        0.1875        0.907408        0.3736641605839415        0        
C1        C        0.25        0.907408        0.3736641605839415        0        
C1        C        0.3125        0.907408        0.3736641605839415        0        
C1        C        0.375        0.907408        0.3736641605839415        0        
C1        C        0.4375        0.907408        0.3736641605839415        0        
C1        C        0.5        0.907408        0.3736641605839415        0        
C1        C        0.5625        0.907408        0.3736641605839415        0        
C1        C        0.625        0.907408        0.3736641605839415        0        
C1        C        0.6875        0.907408        0.3736641605839415        0        
C1        C        0.75        0.907408        0.3736641605839415        0        
C1        C        0.8125        0.907408        0.3736641605839415        0        
C1        C        0.875        0.907408        0.3736641605839415        0        
C1        C        0.9375        0.907408        0.3736641605839415        0        
C2        C        0.03125        0.962963        0.3736641605839415        0        
C2        C        0.09375        0.962963        0.3736641605839415        0        
C2        C        0.15625        0.962963        0.3736641605839415        0        
C2        C        0.21875        0.962963        0.3736641605839415        0        
C2        C        0.28125        0.962963        0.3736641605839415        0        
C2        C        0.34375        0.962963        0.3736641605839415        0        
C2        C        0.40625        0.962963        0.3736641605839415        0        
C2        C        0.46875        0.962963        0.3736641605839415        0        
C2        C        0.53125        0.962963        0.3736641605839415        0        
C2        C        0.59375        0.962963        0.3736641605839415        0        
C2        C        0.65625        0.962963        0.3736641605839415        0        
C2        C        0.71875        0.962963        0.3736641605839415        0        
C2        C        0.78125        0.962963        0.3736641605839415        0        
C2        C        0.84375        0.962963        0.3736641605839415        0        
C2        C        0.9062500000000001        0.962963        0.3736641605839415        0        
C2        C        0.9687500000000001        0.962963        0.3736641605839415        0        
C3        C        0.0        0.9814809999999999        0.3736641605839415        0        
C3        C        0.0625        0.9814809999999999        0.3736641605839415        0        
C3        C        0.125        0.9814809999999999        0.3736641605839415        0        
C3        C        0.1875        0.9814809999999999        0.3736641605839415        0        
C3        C        0.25        0.9814809999999999        0.3736641605839415        0        
C3        C        0.3125        0.9814809999999999        0.3736641605839415        0        
C3        C        0.375        0.9814809999999999        0.3736641605839415        0        
C3        C        0.4375        0.9814809999999999        0.3736641605839415        0        
C3        C        0.5        0.9814809999999999        0.3736641605839415        0        
C3        C        0.5625        0.9814809999999999        0.3736641605839415        0        
C3        C        0.625        0.9814809999999999        0.3736641605839415        0        
C3        C        0.6875        0.9814809999999999        0.3736641605839415        0        
C3        C        0.75        0.9814809999999999        0.3736641605839415        0        
C3        C        0.8125        0.9814809999999999        0.3736641605839415        0        
C3        C        0.875        0.9814809999999999        0.3736641605839415        0        
C3        C        0.9375        0.9814809999999999        0.3736641605839415        0        
C4        C        0.03125        0.925925        0.3736641605839415        0        
C4        C        0.09375        0.925925        0.3736641605839415        0        
C4        C        0.15625        0.925925        0.3736641605839415        0        
C4        C        0.21875        0.925925        0.3736641605839415        0        
C4        C        0.28125        0.925925        0.3736641605839415        0        
C4        C        0.34375        0.925925        0.3736641605839415        0        
C4        C        0.40625        0.925925        0.3736641605839415        0        
C4        C        0.46875        0.925925        0.3736641605839415        0        
C4        C        0.53125        0.925925        0.3736641605839415        0        
C4        C        0.59375        0.925925        0.3736641605839415        0        
C4        C        0.65625        0.925925        0.3736641605839415        0        
C4        C        0.71875        0.925925        0.3736641605839415        0        
C4        C        0.78125        0.925925        0.3736641605839415        0        
C4        C        0.84375        0.925925        0.3736641605839415        0        
C4        C        0.9062500000000001        0.925925        0.3736641605839415        0        
C4        C        0.9687500000000001        0.925925        0.3736641605839415        0        
C_FG        C        0.0        0.018519        0.618189708029197        0.2        
C2        C        0.03125        0.074075        0.618189708029197        0        
C_FG        C        0.0        0.092592        0.618189708029197        0.2        
C4        C        0.03125        0.037037        0.618189708029197        0        
C_FG        C        0.0        0.12963        0.618189708029197        0.2        
C2        C        0.03125        0.185185        0.618189708029197        0        
C3        C        0.0        0.203703        0.618189708029197        0        
C4        C        0.03125        0.148148        0.618189708029197        0        
C1        C        0.0        0.24074099999999998        0.618189708029197        0        
C2        C        0.03125        0.296297        0.618189708029197        0        
C3        C        0.0        0.314815        0.618189708029197        0        
C4        C        0.03125        0.259259        0.618189708029197        0        
C_FG        C        0.0        0.351852        0.618189708029197        0.2        
C2        C        0.03125        0.407408        0.618189708029197        0        
C3        C        0.0        0.425925        0.618189708029197        0        
C4        C        0.03125        0.37037        0.618189708029197        0        
C_FG        C        0.0        0.46296300000000007        0.618189708029197        0.2        
C2        C        0.03125        0.518519        0.618189708029197        0        
C3        C        0.0        0.537037        0.618189708029197        0        
C4        C        0.03125        0.481481        0.618189708029197        0        
C_FG        C        0.0        0.574075        0.618189708029197        0.2        
C2        C        0.03125        0.62963        0.618189708029197        0        
C3        C        0.0        0.648148        0.618189708029197        0        
C4        C        0.03125        0.592592        0.618189708029197        0        
C1        C        0.0625        0.018519        0.618189708029197        0        
C2        C        0.09375        0.074075        0.618189708029197        0        
C3        C        0.0625        0.092592        0.618189708029197        0        
C4        C        0.09375        0.037037        0.618189708029197        0        
C1        C        0.0625        0.12963        0.618189708029197        0        
C2        C        0.09375        0.185185        0.618189708029197        0        
C3        C        0.0625        0.203703        0.618189708029197        0        
C4        C        0.09375        0.148148        0.618189708029197        0        
C1        C        0.0625        0.24074099999999998        0.618189708029197        0        
C2        C        0.09375        0.296297        0.618189708029197        0        
C3        C        0.0625        0.314815        0.618189708029197        0        
C4        C        0.09375        0.259259        0.618189708029197        0        
C1        C        0.0625        0.351852        0.618189708029197        0        
C2        C        0.09375        0.407408        0.618189708029197        0        
C3        C        0.0625        0.425925        0.618189708029197        0        
C4        C        0.09375        0.37037        0.618189708029197        0        
C1        C        0.0625        0.46296300000000007        0.618189708029197        0        
C2        C        0.09375        0.518519        0.618189708029197        0        
C3        C        0.0625        0.537037        0.618189708029197        0        
C4        C        0.09375        0.481481        0.618189708029197        0        
C1        C        0.0625        0.574075        0.618189708029197        0        
C2        C        0.09375        0.62963        0.618189708029197        0        
C3        C        0.0625        0.648148        0.618189708029197        0        
C4        C        0.09375        0.592592        0.618189708029197        0        
C_FG        C        0.125        0.018519        0.618189708029197        0.2        
C2        C        0.15625        0.074075        0.618189708029197        0        
C_FG        C        0.125        0.092592        0.618189708029197        0.2        
C4        C        0.15625        0.037037        0.618189708029197        0        
C_FG        C        0.125        0.12963        0.618189708029197        0.2        
C2        C        0.15625        0.185185        0.618189708029197        0        
C3        C        0.125        0.203703        0.618189708029197        0        
C4        C        0.15625        0.148148        0.618189708029197        0        
C1        C        0.125        0.24074099999999998        0.618189708029197        0        
C2        C        0.15625        0.296297        0.618189708029197        0        
C3        C        0.125        0.314815        0.618189708029197        0        
C4        C        0.15625        0.259259        0.618189708029197        0        
C_FG        C        0.125        0.351852        0.618189708029197        0.2        
C2        C        0.15625        0.407408        0.618189708029197        0        
C3        C        0.125        0.425925        0.618189708029197        0        
C4        C        0.15625        0.37037        0.618189708029197        0        
C_FG        C        0.125        0.46296300000000007        0.618189708029197        0.2        
C2        C        0.15625        0.518519        0.618189708029197        0        
C3        C        0.125        0.537037        0.618189708029197        0        
C4        C        0.15625        0.481481        0.618189708029197        0        
C_FG        C        0.125        0.574075        0.618189708029197        0.2        
C2        C        0.15625        0.62963        0.618189708029197        0        
C3        C        0.125        0.648148        0.618189708029197        0        
C4        C        0.15625        0.592592        0.618189708029197        0        
C_FG        C        0.1875        0.018519        0.618189708029197        0.2        
C2        C        0.21875        0.074075        0.618189708029197        0        
C_FG        C        0.1875        0.092592        0.618189708029197        0.2        
C4        C        0.21875        0.037037        0.618189708029197        0        
C_FG        C        0.1875        0.12963        0.618189708029197        0.2        
C2        C        0.21875        0.185185        0.618189708029197        0        
C3        C        0.1875        0.203703        0.618189708029197        0        
C4        C        0.21875        0.148148        0.618189708029197        0        
C1        C        0.1875        0.24074099999999998        0.618189708029197        0        
C2        C        0.21875        0.296297        0.618189708029197        0        
C3        C        0.1875        0.314815        0.618189708029197        0        
C4        C        0.21875        0.259259        0.618189708029197        0        
C_FG        C        0.1875        0.351852        0.618189708029197        0.2        
C2        C        0.21875        0.407408        0.618189708029197        0        
C3        C        0.1875        0.425925        0.618189708029197        0        
C4        C        0.21875        0.37037        0.618189708029197        0        
C_FG        C        0.1875        0.46296300000000007        0.618189708029197        0.2        
C2        C        0.21875        0.518519        0.618189708029197        0        
C3        C        0.1875        0.537037        0.618189708029197        0        
C4        C        0.21875        0.481481        0.618189708029197        0        
C_FG        C        0.1875        0.574075        0.618189708029197        0.2        
C2        C        0.21875        0.62963        0.618189708029197        0        
C3        C        0.1875        0.648148        0.618189708029197        0        
C4        C        0.21875        0.592592        0.618189708029197        0        
C1        C        0.25        0.018519        0.618189708029197        0        
C2        C        0.28125        0.074075        0.618189708029197        0        
C3        C        0.25        0.092592        0.618189708029197        0        
C4        C        0.28125        0.037037        0.618189708029197        0        
C1        C        0.25        0.12963        0.618189708029197        0        
C2        C        0.28125        0.185185        0.618189708029197        0        
C3        C        0.25        0.203703        0.618189708029197        0        
C4        C        0.28125        0.148148        0.618189708029197        0        
C1        C        0.25        0.24074099999999998        0.618189708029197        0        
C2        C        0.28125        0.296297        0.618189708029197        0        
C3        C        0.25        0.314815        0.618189708029197        0        
C4        C        0.28125        0.259259        0.618189708029197        0        
C1        C        0.25        0.351852        0.618189708029197        0        
C2        C        0.28125        0.407408        0.618189708029197        0        
C3        C        0.25        0.425925        0.618189708029197        0        
C4        C        0.28125        0.37037        0.618189708029197        0        
C1        C        0.25        0.46296300000000007        0.618189708029197        0        
C2        C        0.28125        0.518519        0.618189708029197        0        
C3        C        0.25        0.537037        0.618189708029197        0        
C4        C        0.28125        0.481481        0.618189708029197        0        
C1        C        0.25        0.574075        0.618189708029197        0        
C2        C        0.28125        0.62963        0.618189708029197        0        
C3        C        0.25        0.648148        0.618189708029197        0        
C4        C        0.28125        0.592592        0.618189708029197        0        
C1        C        0.3125        0.018519        0.618189708029197        0        
C2        C        0.34375        0.074075        0.618189708029197        0        
C3        C        0.3125        0.092592        0.618189708029197        0        
C4        C        0.34375        0.037037        0.618189708029197        0        
C1        C        0.3125        0.12963        0.618189708029197        0        
C2        C        0.34375        0.185185        0.618189708029197        0        
C3        C        0.3125        0.203703        0.618189708029197        0        
C4        C        0.34375        0.148148        0.618189708029197        0        
C1        C        0.3125        0.24074099999999998        0.618189708029197        0        
C2        C        0.34375        0.296297        0.618189708029197        0        
C3        C        0.3125        0.314815        0.618189708029197        0        
C4        C        0.34375        0.259259        0.618189708029197        0        
C1        C        0.3125        0.351852        0.618189708029197        0        
C2        C        0.34375        0.407408        0.618189708029197        0        
C3        C        0.3125        0.425925        0.618189708029197        0        
C4        C        0.34375        0.37037        0.618189708029197        0        
C1        C        0.3125        0.46296300000000007        0.618189708029197        0        
C2        C        0.34375        0.518519        0.618189708029197        0        
C3        C        0.3125        0.537037        0.618189708029197        0        
C4        C        0.34375        0.481481        0.618189708029197        0        
C1        C        0.3125        0.574075        0.618189708029197        0        
C2        C        0.34375        0.62963        0.618189708029197        0        
C3        C        0.3125        0.648148        0.618189708029197        0        
C4        C        0.34375        0.592592        0.618189708029197        0        
C1        C        0.375        0.018519        0.618189708029197        0        
C2        C        0.40625        0.074075        0.618189708029197        0        
C3        C        0.375        0.092592        0.618189708029197        0        
C4        C        0.40625        0.037037        0.618189708029197        0        
C1        C        0.375        0.12963        0.618189708029197        0        
C2        C        0.40625        0.185185        0.618189708029197        0        
C3        C        0.375        0.203703        0.618189708029197        0        
C4        C        0.40625        0.148148        0.618189708029197        0        
C1        C        0.375        0.24074099999999998        0.618189708029197        0        
C2        C        0.40625        0.296297        0.618189708029197        0        
C3        C        0.375        0.314815        0.618189708029197        0        
C4        C        0.40625        0.259259        0.618189708029197        0        
C1        C        0.375        0.351852        0.618189708029197        0        
C2        C        0.40625        0.407408        0.618189708029197        0        
C3        C        0.375        0.425925        0.618189708029197        0        
C4        C        0.40625        0.37037        0.618189708029197        0        
C1        C        0.375        0.46296300000000007        0.618189708029197        0        
C2        C        0.40625        0.518519        0.618189708029197        0        
C3        C        0.375        0.537037        0.618189708029197        0        
C4        C        0.40625        0.481481        0.618189708029197        0        
C1        C        0.375        0.574075        0.618189708029197        0        
C2        C        0.40625        0.62963        0.618189708029197        0        
C3        C        0.375        0.648148        0.618189708029197        0        
C4        C        0.40625        0.592592        0.618189708029197        0        
C1        C        0.4375        0.018519        0.618189708029197        0        
C_FG        C        0.46875        0.074075        0.618189708029197        0.2        
C3        C        0.4375        0.092592        0.618189708029197        0        
C4        C        0.46875        0.037037        0.618189708029197        0        
C1        C        0.4375        0.12963        0.618189708029197        0        
C2        C        0.46875        0.185185        0.618189708029197        0        
C3        C        0.4375        0.203703        0.618189708029197        0        
C_FG        C        0.46875        0.148148        0.618189708029197        0.2        
C1        C        0.4375        0.24074099999999998        0.618189708029197        0        
C2        C        0.46875        0.296297        0.618189708029197        0        
C3        C        0.4375        0.314815        0.618189708029197        0        
C4        C        0.46875        0.259259        0.618189708029197        0        
C1        C        0.4375        0.351852        0.618189708029197        0        
C_FG        C        0.46875        0.407408        0.618189708029197        0.2        
C3        C        0.4375        0.425925        0.618189708029197        0        
C4        C        0.46875        0.37037        0.618189708029197        0        
C1        C        0.4375        0.46296300000000007        0.618189708029197        0        
C2        C        0.46875        0.518519        0.618189708029197        0        
C3        C        0.4375        0.537037        0.618189708029197        0        
C4        C        0.46875        0.481481        0.618189708029197        0        
C1        C        0.4375        0.574075        0.618189708029197        0        
C2        C        0.46875        0.62963        0.618189708029197        0        
C3        C        0.4375        0.648148        0.618189708029197        0        
C4        C        0.46875        0.592592        0.618189708029197        0        
C1        C        0.5        0.018519        0.618189708029197        0        
C2        C        0.53125        0.074075        0.618189708029197        0        
C3        C        0.5        0.092592        0.618189708029197        0        
C4        C        0.53125        0.037037        0.618189708029197        0        
C1        C        0.5        0.12963        0.618189708029197        0        
C2        C        0.53125        0.185185        0.618189708029197        0        
C3        C        0.5        0.203703        0.618189708029197        0        
C4        C        0.53125        0.148148        0.618189708029197        0        
C1        C        0.5        0.24074099999999998        0.618189708029197        0        
C2        C        0.53125        0.296297        0.618189708029197        0        
C3        C        0.5        0.314815        0.618189708029197        0        
C4        C        0.53125        0.259259        0.618189708029197        0        
C1        C        0.5        0.351852        0.618189708029197        0        
C2        C        0.53125        0.407408        0.618189708029197        0        
C3        C        0.5        0.425925        0.618189708029197        0        
C4        C        0.53125        0.37037        0.618189708029197        0        
C1        C        0.5        0.46296300000000007        0.618189708029197        0        
C2        C        0.53125        0.518519        0.618189708029197        0        
C3        C        0.5        0.537037        0.618189708029197        0        
C4        C        0.53125        0.481481        0.618189708029197        0        
C1        C        0.5        0.574075        0.618189708029197        0        
C2        C        0.53125        0.62963        0.618189708029197        0        
C3        C        0.5        0.648148        0.618189708029197        0        
C4        C        0.53125        0.592592        0.618189708029197        0        
C1        C        0.5625        0.018519        0.618189708029197        0        
C2        C        0.59375        0.074075        0.618189708029197        0        
C3        C        0.5625        0.092592        0.618189708029197        0        
C4        C        0.59375        0.037037        0.618189708029197        0        
C1        C        0.5625        0.12963        0.618189708029197        0        
C2        C        0.59375        0.185185        0.618189708029197        0        
C3        C        0.5625        0.203703        0.618189708029197        0        
C4        C        0.59375        0.148148        0.618189708029197        0        
C1        C        0.5625        0.24074099999999998        0.618189708029197        0        
C2        C        0.59375        0.296297        0.618189708029197        0        
C3        C        0.5625        0.314815        0.618189708029197        0        
C4        C        0.59375        0.259259        0.618189708029197        0        
C1        C        0.5625        0.351852        0.618189708029197        0        
C2        C        0.59375        0.407408        0.618189708029197        0        
C3        C        0.5625        0.425925        0.618189708029197        0        
C4        C        0.59375        0.37037        0.618189708029197        0        
C1        C        0.5625        0.46296300000000007        0.618189708029197        0        
C2        C        0.59375        0.518519        0.618189708029197        0        
C3        C        0.5625        0.537037        0.618189708029197        0        
C4        C        0.59375        0.481481        0.618189708029197        0        
C1        C        0.5625        0.574075        0.618189708029197        0        
C2        C        0.59375        0.62963        0.618189708029197        0        
C3        C        0.5625        0.648148        0.618189708029197        0        
C4        C        0.59375        0.592592        0.618189708029197        0        
C1        C        0.625        0.018519        0.618189708029197        0        
C2        C        0.65625        0.074075        0.618189708029197        0        
C3        C        0.625        0.092592        0.618189708029197        0        
C4        C        0.65625        0.037037        0.618189708029197        0        
C1        C        0.625        0.12963        0.618189708029197        0        
C2        C        0.65625        0.185185        0.618189708029197        0        
C3        C        0.625        0.203703        0.618189708029197        0        
C4        C        0.65625        0.148148        0.618189708029197        0        
C1        C        0.625        0.24074099999999998        0.618189708029197        0        
C2        C        0.65625        0.296297        0.618189708029197        0        
C3        C        0.625        0.314815        0.618189708029197        0        
C4        C        0.65625        0.259259        0.618189708029197        0        
C1        C        0.625        0.351852        0.618189708029197        0        
C2        C        0.65625        0.407408        0.618189708029197        0        
C3        C        0.625        0.425925        0.618189708029197        0        
C4        C        0.65625        0.37037        0.618189708029197        0        
C1        C        0.625        0.46296300000000007        0.618189708029197        0        
C2        C        0.65625        0.518519        0.618189708029197        0        
C3        C        0.625        0.537037        0.618189708029197        0        
C4        C        0.65625        0.481481        0.618189708029197        0        
C1        C        0.625        0.574075        0.618189708029197        0        
C2        C        0.65625        0.62963        0.618189708029197        0        
C3        C        0.625        0.648148        0.618189708029197        0        
C4        C        0.65625        0.592592        0.618189708029197        0        
C1        C        0.6875        0.018519        0.618189708029197        0        
C2        C        0.71875        0.074075        0.618189708029197        0        
C3        C        0.6875        0.092592        0.618189708029197        0        
C4        C        0.71875        0.037037        0.618189708029197        0        
C1        C        0.6875        0.12963        0.618189708029197        0        
C2        C        0.71875        0.185185        0.618189708029197        0        
C3        C        0.6875        0.203703        0.618189708029197        0        
C4        C        0.71875        0.148148        0.618189708029197        0        
C1        C        0.6875        0.24074099999999998        0.618189708029197        0        
C2        C        0.71875        0.296297        0.618189708029197        0        
C3        C        0.6875        0.314815        0.618189708029197        0        
C4        C        0.71875        0.259259        0.618189708029197        0        
C1        C        0.6875        0.351852        0.618189708029197        0        
C2        C        0.71875        0.407408        0.618189708029197        0        
C3        C        0.6875        0.425925        0.618189708029197        0        
C4        C        0.71875        0.37037        0.618189708029197        0        
C1        C        0.6875        0.46296300000000007        0.618189708029197        0        
C2        C        0.71875        0.518519        0.618189708029197        0        
C3        C        0.6875        0.537037        0.618189708029197        0        
C4        C        0.71875        0.481481        0.618189708029197        0        
C1        C        0.6875        0.574075        0.618189708029197        0        
C2        C        0.71875        0.62963        0.618189708029197        0        
C3        C        0.6875        0.648148        0.618189708029197        0        
C4        C        0.71875        0.592592        0.618189708029197        0        
C1        C        0.75        0.018519        0.618189708029197        0        
C2        C        0.78125        0.074075        0.618189708029197        0        
C3        C        0.75        0.092592        0.618189708029197        0        
C4        C        0.78125        0.037037        0.618189708029197        0        
C1        C        0.75        0.12963        0.618189708029197        0        
C2        C        0.78125        0.185185        0.618189708029197        0        
C3        C        0.75        0.203703        0.618189708029197        0        
C4        C        0.78125        0.148148        0.618189708029197        0        
C1        C        0.75        0.24074099999999998        0.618189708029197        0        
C2        C        0.78125        0.296297        0.618189708029197        0        
C3        C        0.75        0.314815        0.618189708029197        0        
C4        C        0.78125        0.259259        0.618189708029197        0        
C1        C        0.75        0.351852        0.618189708029197        0        
C2        C        0.78125        0.407408        0.618189708029197        0        
C3        C        0.75        0.425925        0.618189708029197        0        
C4        C        0.78125        0.37037        0.618189708029197        0        
C1        C        0.75        0.46296300000000007        0.618189708029197        0        
C2        C        0.78125        0.518519        0.618189708029197        0        
C3        C        0.75        0.537037        0.618189708029197        0        
C4        C        0.78125        0.481481        0.618189708029197        0        
C1        C        0.75        0.574075        0.618189708029197        0        
C2        C        0.78125        0.62963        0.618189708029197        0        
C3        C        0.75        0.648148        0.618189708029197        0        
C4        C        0.78125        0.592592        0.618189708029197        0        
C_FG        C        0.8125        0.018519        0.618189708029197        0.2        
C2        C        0.84375        0.074075        0.618189708029197        0        
C_FG        C        0.8125        0.092592        0.618189708029197        0.2        
C4        C        0.84375        0.037037        0.618189708029197        0        
C_FG        C        0.8125        0.12963        0.618189708029197        0.2        
C2        C        0.84375        0.185185        0.618189708029197        0        
C3        C        0.8125        0.203703        0.618189708029197        0        
C4        C        0.84375        0.148148        0.618189708029197        0        
C1        C        0.8125        0.24074099999999998        0.618189708029197        0        
C2        C        0.84375        0.296297        0.618189708029197        0        
C3        C        0.8125        0.314815        0.618189708029197        0        
C4        C        0.84375        0.259259        0.618189708029197        0        
C_FG        C        0.8125        0.351852        0.618189708029197        0.2        
C2        C        0.84375        0.407408        0.618189708029197        0        
C3        C        0.8125        0.425925        0.618189708029197        0        
C4        C        0.84375        0.37037        0.618189708029197        0        
C_FG        C        0.8125        0.46296300000000007        0.618189708029197        0.2        
C2        C        0.84375        0.518519        0.618189708029197        0        
C3        C        0.8125        0.537037        0.618189708029197        0        
C4        C        0.84375        0.481481        0.618189708029197        0        
C_FG        C        0.8125        0.574075        0.618189708029197        0.2        
C2        C        0.84375        0.62963        0.618189708029197        0        
C3        C        0.8125        0.648148        0.618189708029197        0        
C4        C        0.84375        0.592592        0.618189708029197        0        
C_FG        C        0.875        0.018519        0.618189708029197        0.2        
C2        C        0.9062500000000001        0.074075        0.618189708029197        0        
C_FG        C        0.875        0.092592        0.618189708029197        0.2        
C4        C        0.9062500000000001        0.037037        0.618189708029197        0        
C_FG        C        0.875        0.12963        0.618189708029197        0.2        
C2        C        0.9062500000000001        0.185185        0.618189708029197        0        
C3        C        0.875        0.203703        0.618189708029197        0        
C4        C        0.9062500000000001        0.148148        0.618189708029197        0        
C1        C        0.875        0.24074099999999998        0.618189708029197        0        
C2        C        0.9062500000000001        0.296297        0.618189708029197        0        
C3        C        0.875        0.314815        0.618189708029197        0        
C4        C        0.9062500000000001        0.259259        0.618189708029197        0        
C_FG        C        0.875        0.351852        0.618189708029197        0.2        
C2        C        0.9062500000000001        0.407408        0.618189708029197        0        
C3        C        0.875        0.425925        0.618189708029197        0        
C4        C        0.9062500000000001        0.37037        0.618189708029197        0        
C_FG        C        0.875        0.46296300000000007        0.618189708029197        0.2        
C2        C        0.9062500000000001        0.518519        0.618189708029197        0        
C3        C        0.875        0.537037        0.618189708029197        0        
C4        C        0.9062500000000001        0.481481        0.618189708029197        0        
C_FG        C        0.875        0.574075        0.618189708029197        0.2        
C2        C        0.9062500000000001        0.62963        0.618189708029197        0        
C3        C        0.875        0.648148        0.618189708029197        0        
C4        C        0.9062500000000001        0.592592        0.618189708029197        0        
C1        C        0.9375        0.018519        0.618189708029197        0        
C_FG        C        0.9687500000000001        0.074075        0.618189708029197        0.2        
C3        C        0.9375        0.092592        0.618189708029197        0        
C4        C        0.9687500000000001        0.037037        0.618189708029197        0        
C1        C        0.9375        0.12963        0.618189708029197        0        
C2        C        0.9687500000000001        0.185185        0.618189708029197        0        
C3        C        0.9375        0.203703        0.618189708029197        0        
C_FG        C        0.9687500000000001        0.148148        0.618189708029197        0.2        
C1        C        0.9375        0.24074099999999998        0.618189708029197        0        
C2        C        0.9687500000000001        0.296297        0.618189708029197        0        
C3        C        0.9375        0.314815        0.618189708029197        0        
C4        C        0.9687500000000001        0.259259        0.618189708029197        0        
C1        C        0.9375        0.351852        0.618189708029197        0        
C_FG        C        0.9687500000000001        0.407408        0.618189708029197        0.2        
C3        C        0.9375        0.425925        0.618189708029197        0        
C4        C        0.9687500000000001        0.37037        0.618189708029197        0        
C1        C        0.9375        0.46296300000000007        0.618189708029197        0        
C2        C        0.9687500000000001        0.518519        0.618189708029197        0        
C3        C        0.9375        0.537037        0.618189708029197        0        
C4        C        0.9687500000000001        0.481481        0.618189708029197        0        
C1        C        0.9375        0.574075        0.618189708029197        0        
C2        C        0.9687500000000001        0.62963        0.618189708029197        0        
C3        C        0.9375        0.648148        0.618189708029197        0        
C4        C        0.9687500000000001        0.592592        0.618189708029197        0        
C_FG        C        0.0        0.685186        0.618189708029197        0.2        
C1        C        0.0625        0.685186        0.618189708029197        0        
C_FG        C        0.125        0.685186        0.618189708029197        0.2        
C_FG        C        0.1875        0.685186        0.618189708029197        0.2        
C1        C        0.25        0.685186        0.618189708029197        0        
C1        C        0.3125        0.685186        0.618189708029197        0        
C1        C        0.375        0.685186        0.618189708029197        0        
C1        C        0.4375        0.685186        0.618189708029197        0        
C1        C        0.5        0.685186        0.618189708029197        0        
C1        C        0.5625        0.685186        0.618189708029197        0        
C1        C        0.625        0.685186        0.618189708029197        0        
C1        C        0.6875        0.685186        0.618189708029197        0        
C1        C        0.75        0.685186        0.618189708029197        0        
C_FG        C        0.8125        0.685186        0.618189708029197        0.2        
C_FG        C        0.875        0.685186        0.618189708029197        0.2        
C1        C        0.9375        0.685186        0.618189708029197        0        
C2        C        0.03125        0.740741        0.618189708029197        0        
C2        C        0.09375        0.740741        0.618189708029197        0        
C2        C        0.15625        0.740741        0.618189708029197        0        
C2        C        0.21875        0.740741        0.618189708029197        0        
C2        C        0.28125        0.740741        0.618189708029197        0        
C2        C        0.34375        0.740741        0.618189708029197        0        
C2        C        0.40625        0.740741        0.618189708029197        0        
C_FG        C        0.46875        0.740741        0.618189708029197        0.2        
C2        C        0.53125        0.740741        0.618189708029197        0        
C2        C        0.59375        0.740741        0.618189708029197        0        
C2        C        0.65625        0.740741        0.618189708029197        0        
C2        C        0.71875        0.740741        0.618189708029197        0        
C2        C        0.78125        0.740741        0.618189708029197        0        
C2        C        0.84375        0.740741        0.618189708029197        0        
C2        C        0.9062500000000001        0.740741        0.618189708029197        0        
C_FG        C        0.9687500000000001        0.740741        0.618189708029197        0.2        
C_FG        C        0.0        0.759259        0.618189708029197        0.2        
C3        C        0.0625        0.759259        0.618189708029197        0        
C_FG        C        0.125        0.759259        0.618189708029197        0.2        
C_FG        C        0.1875        0.759259        0.618189708029197        0.2        
C3        C        0.25        0.759259        0.618189708029197        0        
C3        C        0.3125        0.759259        0.618189708029197        0        
C3        C        0.375        0.759259        0.618189708029197        0        
C3        C        0.4375        0.759259        0.618189708029197        0        
C3        C        0.5        0.759259        0.618189708029197        0        
C3        C        0.5625        0.759259        0.618189708029197        0        
C3        C        0.625        0.759259        0.618189708029197        0        
C3        C        0.6875        0.759259        0.618189708029197        0        
C3        C        0.75        0.759259        0.618189708029197        0        
C_FG        C        0.8125        0.759259        0.618189708029197        0.2        
C_FG        C        0.875        0.759259        0.618189708029197        0.2        
C3        C        0.9375        0.759259        0.618189708029197        0        
C4        C        0.03125        0.703703        0.618189708029197        0        
C4        C        0.09375        0.703703        0.618189708029197        0        
C4        C        0.15625        0.703703        0.618189708029197        0        
C4        C        0.21875        0.703703        0.618189708029197        0        
C4        C        0.28125        0.703703        0.618189708029197        0        
C4        C        0.34375        0.703703        0.618189708029197        0        
C4        C        0.40625        0.703703        0.618189708029197        0        
C_FG        C        0.46875        0.703703        0.618189708029197        0.2        
C4        C        0.53125        0.703703        0.618189708029197        0        
C4        C        0.59375        0.703703        0.618189708029197        0        
C4        C        0.65625        0.703703        0.618189708029197        0        
C4        C        0.71875        0.703703        0.618189708029197        0        
C4        C        0.78125        0.703703        0.618189708029197        0        
C4        C        0.84375        0.703703        0.618189708029197        0        
C4        C        0.9062500000000001        0.703703        0.618189708029197        0        
C_FG        C        0.9687500000000001        0.703703        0.618189708029197        0.2        
C1        C        0.0        0.796297        0.618189708029197        0        
C1        C        0.0625        0.796297        0.618189708029197        0        
C1        C        0.125        0.796297        0.618189708029197        0        
C1        C        0.1875        0.796297        0.618189708029197        0        
C1        C        0.25        0.796297        0.618189708029197        0        
C1        C        0.3125        0.796297        0.618189708029197        0        
C1        C        0.375        0.796297        0.618189708029197        0        
C1        C        0.4375        0.796297        0.618189708029197        0        
C1        C        0.5        0.796297        0.618189708029197        0        
C1        C        0.5625        0.796297        0.618189708029197        0        
C1        C        0.625        0.796297        0.618189708029197        0        
C1        C        0.6875        0.796297        0.618189708029197        0        
C1        C        0.75        0.796297        0.618189708029197        0        
C1        C        0.8125        0.796297        0.618189708029197        0        
C1        C        0.875        0.796297        0.618189708029197        0        
C1        C        0.9375        0.796297        0.618189708029197        0        
C2        C        0.03125        0.851852        0.618189708029197        0        
C2        C        0.09375        0.851852        0.618189708029197        0        
C2        C        0.15625        0.851852        0.618189708029197        0        
C2        C        0.21875        0.851852        0.618189708029197        0        
C2        C        0.28125        0.851852        0.618189708029197        0        
C2        C        0.34375        0.851852        0.618189708029197        0        
C2        C        0.40625        0.851852        0.618189708029197        0        
C2        C        0.46875        0.851852        0.618189708029197        0        
C2        C        0.53125        0.851852        0.618189708029197        0        
C2        C        0.59375        0.851852        0.618189708029197        0        
C2        C        0.65625        0.851852        0.618189708029197        0        
C2        C        0.71875        0.851852        0.618189708029197        0        
C2        C        0.78125        0.851852        0.618189708029197        0        
C2        C        0.84375        0.851852        0.618189708029197        0        
C2        C        0.9062500000000001        0.851852        0.618189708029197        0        
C2        C        0.9687500000000001        0.851852        0.618189708029197        0        
C3        C        0.0        0.87037        0.618189708029197        0        
C3        C        0.0625        0.87037        0.618189708029197        0        
C3        C        0.125        0.87037        0.618189708029197        0        
C3        C        0.1875        0.87037        0.618189708029197        0        
C3        C        0.25        0.87037        0.618189708029197        0        
C3        C        0.3125        0.87037        0.618189708029197        0        
C3        C        0.375        0.87037        0.618189708029197        0        
C3        C        0.4375        0.87037        0.618189708029197        0        
C3        C        0.5        0.87037        0.618189708029197        0        
C3        C        0.5625        0.87037        0.618189708029197        0        
C3        C        0.625        0.87037        0.618189708029197        0        
C3        C        0.6875        0.87037        0.618189708029197        0        
C3        C        0.75        0.87037        0.618189708029197        0        
C3        C        0.8125        0.87037        0.618189708029197        0        
C3        C        0.875        0.87037        0.618189708029197        0        
C3        C        0.9375        0.87037        0.618189708029197        0        
C4        C        0.03125        0.814814        0.618189708029197        0        
C4        C        0.09375        0.814814        0.618189708029197        0        
C4        C        0.15625        0.814814        0.618189708029197        0        
C4        C        0.21875        0.814814        0.618189708029197        0        
C4        C        0.28125        0.814814        0.618189708029197        0        
C4        C        0.34375        0.814814        0.618189708029197        0        
C4        C        0.40625        0.814814        0.618189708029197        0        
C4        C        0.46875        0.814814        0.618189708029197        0        
C4        C        0.53125        0.814814        0.618189708029197        0        
C4        C        0.59375        0.814814        0.618189708029197        0        
C4        C        0.65625        0.814814        0.618189708029197        0        
C4        C        0.71875        0.814814        0.618189708029197        0        
C4        C        0.78125        0.814814        0.618189708029197        0        
C4        C        0.84375        0.814814        0.618189708029197        0        
C4        C        0.9062500000000001        0.814814        0.618189708029197        0        
C4        C        0.9687500000000001        0.814814        0.618189708029197        0        
C1        C        0.0        0.907408        0.618189708029197        0        
C1        C        0.0625        0.907408        0.618189708029197        0        
C1        C        0.125        0.907408        0.618189708029197        0        
C1        C        0.1875        0.907408        0.618189708029197        0        
C1        C        0.25        0.907408        0.618189708029197        0        
C1        C        0.3125        0.907408        0.618189708029197        0        
C1        C        0.375        0.907408        0.618189708029197        0        
C1        C        0.4375        0.907408        0.618189708029197        0        
C1        C        0.5        0.907408        0.618189708029197        0        
C1        C        0.5625        0.907408        0.618189708029197        0        
C1        C        0.625        0.907408        0.618189708029197        0        
C1        C        0.6875        0.907408        0.618189708029197        0        
C1        C        0.75        0.907408        0.618189708029197        0        
C1        C        0.8125        0.907408        0.618189708029197        0        
C1        C        0.875        0.907408        0.618189708029197        0        
C1        C        0.9375        0.907408        0.618189708029197        0        
C2        C        0.03125        0.962963        0.618189708029197        0        
C2        C        0.09375        0.962963        0.618189708029197        0        
C2        C        0.15625        0.962963        0.618189708029197        0        
C2        C        0.21875        0.962963        0.618189708029197        0        
C2        C        0.28125        0.962963        0.618189708029197        0        
C2        C        0.34375        0.962963        0.618189708029197        0        
C2        C        0.40625        0.962963        0.618189708029197        0        
C2        C        0.46875        0.962963        0.618189708029197        0        
C2        C        0.53125        0.962963        0.618189708029197        0        
C2        C        0.59375        0.962963        0.618189708029197        0        
C2        C        0.65625        0.962963        0.618189708029197        0        
C2        C        0.71875        0.962963        0.618189708029197        0        
C2        C        0.78125        0.962963        0.618189708029197        0        
C2        C        0.84375        0.962963        0.618189708029197        0        
C2        C        0.9062500000000001        0.962963        0.618189708029197        0        
C2        C        0.9687500000000001        0.962963        0.618189708029197        0        
C3        C        0.0        0.9814809999999999        0.618189708029197        0        
C3        C        0.0625        0.9814809999999999        0.618189708029197        0        
C3        C        0.125        0.9814809999999999        0.618189708029197        0        
C3        C        0.1875        0.9814809999999999        0.618189708029197        0        
C3        C        0.25        0.9814809999999999        0.618189708029197        0        
C3        C        0.3125        0.9814809999999999        0.618189708029197        0        
C3        C        0.375        0.9814809999999999        0.618189708029197        0        
C3        C        0.4375        0.9814809999999999        0.618189708029197        0        
C3        C        0.5        0.9814809999999999        0.618189708029197        0        
C3        C        0.5625        0.9814809999999999        0.618189708029197        0        
C3        C        0.625        0.9814809999999999        0.618189708029197        0        
C3        C        0.6875        0.9814809999999999        0.618189708029197        0        
C3        C        0.75        0.9814809999999999        0.618189708029197        0        
C3        C        0.8125        0.9814809999999999        0.618189708029197        0        
C3        C        0.875        0.9814809999999999        0.618189708029197        0        
C3        C        0.9375        0.9814809999999999        0.618189708029197        0        
C4        C        0.03125        0.925925        0.618189708029197        0        
C4        C        0.09375        0.925925        0.618189708029197        0        
C4        C        0.15625        0.925925        0.618189708029197        0        
C4        C        0.21875        0.925925        0.618189708029197        0        
C4        C        0.28125        0.925925        0.618189708029197        0        
C4        C        0.34375        0.925925        0.618189708029197        0        
C4        C        0.40625        0.925925        0.618189708029197        0        
C4        C        0.46875        0.925925        0.618189708029197        0        
C4        C        0.53125        0.925925        0.618189708029197        0        
C4        C        0.59375        0.925925        0.618189708029197        0        
C4        C        0.65625        0.925925        0.618189708029197        0        
C4        C        0.71875        0.925925        0.618189708029197        0        
C4        C        0.78125        0.925925        0.618189708029197        0        
C4        C        0.84375        0.925925        0.618189708029197        0        
C4        C        0.9062500000000001        0.925925        0.618189708029197        0        
C4        C        0.9687500000000001        0.925925        0.618189708029197        0        
O_OH        O        0.0        0.018519        0.024540072992700723        -0.64        
O_OH        O        0.0        0.092592        0.024540072992700723        -0.64        
O_OH        O        0.0        0.12963        0.024540072992700723        -0.64        
O_OH        O        0.0        0.351852        0.024540072992700723        -0.64        
O_OH        O        0.0        0.46296300000000007        0.024540072992700723        -0.64        
O_OH        O        0.0        0.574075        0.024540072992700723        -0.64        
O_OH        O        0.125        0.018519        0.024540072992700723        -0.64        
O_OH        O        0.125        0.092592        0.024540072992700723        -0.64        
O_OH        O        0.125        0.12963        0.024540072992700723        -0.64        
O_OH        O        0.125        0.351852        0.024540072992700723        -0.64        
O_OH        O        0.125        0.46296300000000007        0.024540072992700723        -0.64        
O_OH        O        0.125        0.574075        0.024540072992700723        -0.64        
O_OH        O        0.1875        0.018519        0.024540072992700723        -0.64        
O_OH        O        0.1875        0.092592        0.024540072992700723        -0.64        
O_OH        O        0.1875        0.12963        0.024540072992700723        -0.64        
O_OH        O        0.1875        0.351852        0.024540072992700723        -0.64        
O_OH        O        0.1875        0.46296300000000007        0.024540072992700723        -0.64        
O_OH        O        0.1875        0.574075        0.024540072992700723        -0.64        
O_OH        O        0.46875        0.074075        0.024540072992700723        -0.64        
O_OH        O        0.46875        0.148148        0.024540072992700723        -0.64        
O_OH        O        0.46875        0.407408        0.024540072992700723        -0.64        
O_OH        O        0.8125        0.018519        0.024540072992700723        -0.64        
O_OH        O        0.8125        0.092592        0.024540072992700723        -0.64        
O_OH        O        0.8125        0.12963        0.024540072992700723        -0.64        
O_OH        O        0.8125        0.351852        0.024540072992700723        -0.64        
O_OH        O        0.8125        0.46296300000000007        0.024540072992700723        -0.64        
O_OH        O        0.8125        0.574075        0.024540072992700723        -0.64        
O_OH        O        0.875        0.018519        0.024540072992700723        -0.64        
O_OH        O        0.875        0.092592        0.024540072992700723        -0.64        
O_OH        O        0.875        0.12963        0.024540072992700723        -0.64        
O_OH        O        0.875        0.351852        0.024540072992700723        -0.64        
O_OH        O        0.875        0.46296300000000007        0.024540072992700723        -0.64        
O_OH        O        0.875        0.574075        0.024540072992700723        -0.64        
O_OH        O        0.9687500000000001        0.074075        0.024540072992700723        -0.64        
O_OH        O        0.9687500000000001        0.148148        0.024540072992700723        -0.64        
O_OH        O        0.9687500000000001        0.407408        0.024540072992700723        -0.64        
O_OH        O        0.0        0.685186        0.024540072992700723        -0.64        
O_OH        O        0.125        0.685186        0.024540072992700723        -0.64        
O_OH        O        0.1875        0.685186        0.024540072992700723        -0.64        
O_OH        O        0.8125        0.685186        0.024540072992700723        -0.64        
O_OH        O        0.875        0.685186        0.024540072992700723        -0.64        
O_OH        O        0.46875        0.740741        0.024540072992700723        -0.64        
O_OH        O        0.9687500000000001        0.740741        0.024540072992700723        -0.64        
O_OH        O        0.0        0.759259        0.024540072992700723        -0.64        
O_OH        O        0.125        0.759259        0.024540072992700723        -0.64        
O_OH        O        0.1875        0.759259        0.024540072992700723        -0.64        
O_OH        O        0.8125        0.759259        0.024540072992700723        -0.64        
O_OH        O        0.875        0.759259        0.024540072992700723        -0.64        
O_OH        O        0.46875        0.703703        0.024540072992700723        -0.64        
O_OH        O        0.9687500000000001        0.703703        0.024540072992700723        -0.64        
O_OH        O        0.0        0.018519        0.7227882481751825        -0.64        
O_OH        O        0.0        0.092592        0.7227882481751825        -0.64        
O_OH        O        0.0        0.12963        0.7227882481751825        -0.64        
O_OH        O        0.0        0.351852        0.7227882481751825        -0.64        
O_OH        O        0.0        0.46296300000000007        0.7227882481751825        -0.64        
O_OH        O        0.0        0.574075        0.7227882481751825        -0.64        
O_OH        O        0.125        0.018519        0.7227882481751825        -0.64        
O_OH        O        0.125        0.092592        0.7227882481751825        -0.64        
O_OH        O        0.125        0.12963        0.7227882481751825        -0.64        
O_OH        O        0.125        0.351852        0.7227882481751825        -0.64        
O_OH        O        0.125        0.46296300000000007        0.7227882481751825        -0.64        
O_OH        O        0.125        0.574075        0.7227882481751825        -0.64        
O_OH        O        0.1875        0.018519        0.7227882481751825        -0.64        
O_OH        O        0.1875        0.092592        0.7227882481751825        -0.64        
O_OH        O        0.1875        0.12963        0.7227882481751825        -0.64        
O_OH        O        0.1875        0.351852        0.7227882481751825        -0.64        
O_OH        O        0.1875        0.46296300000000007        0.7227882481751825        -0.64        
O_OH        O        0.1875        0.574075        0.7227882481751825        -0.64        
O_OH        O        0.46875        0.074075        0.7227882481751825        -0.64        
O_OH        O        0.46875        0.148148        0.7227882481751825        -0.64        
O_OH        O        0.46875        0.407408        0.7227882481751825        -0.64        
O_OH        O        0.8125        0.018519        0.7227882481751825        -0.64        
O_OH        O        0.8125        0.092592        0.7227882481751825        -0.64        
O_OH        O        0.8125        0.12963        0.7227882481751825        -0.64        
O_OH        O        0.8125        0.351852        0.7227882481751825        -0.64        
O_OH        O        0.8125        0.46296300000000007        0.7227882481751825        -0.64        
O_OH        O        0.8125        0.574075        0.7227882481751825        -0.64        
O_OH        O        0.875        0.018519        0.7227882481751825        -0.64        
O_OH        O        0.875        0.092592        0.7227882481751825        -0.64        
O_OH        O        0.875        0.12963        0.7227882481751825        -0.64        
O_OH        O        0.875        0.351852        0.7227882481751825        -0.64        
O_OH        O        0.875        0.46296300000000007        0.7227882481751825        -0.64        
O_OH        O        0.875        0.574075        0.7227882481751825        -0.64        
O_OH        O        0.9687500000000001        0.074075        0.7227882481751825        -0.64        
O_OH        O        0.9687500000000001        0.148148        0.7227882481751825        -0.64        
O_OH        O        0.9687500000000001        0.407408        0.7227882481751825        -0.64        
O_OH        O        0.0        0.685186        0.7227882481751825        -0.64        
O_OH        O        0.125        0.685186        0.7227882481751825        -0.64        
O_OH        O        0.1875        0.685186        0.7227882481751825        -0.64        
O_OH        O        0.8125        0.685186        0.7227882481751825        -0.64        
O_OH        O        0.875        0.685186        0.7227882481751825        -0.64        
O_OH        O        0.46875        0.740741        0.7227882481751825        -0.64        
O_OH        O        0.9687500000000001        0.740741        0.7227882481751825        -0.64        
O_OH        O        0.0        0.759259        0.7227882481751825        -0.64        
O_OH        O        0.125        0.759259        0.7227882481751825        -0.64        
O_OH        O        0.1875        0.759259        0.7227882481751825        -0.64        
O_OH        O        0.8125        0.759259        0.7227882481751825        -0.64        
O_OH        O        0.875        0.759259        0.7227882481751825        -0.64        
O_OH        O        0.46875        0.703703        0.7227882481751825        -0.64        
O_OH        O        0.9687500000000001        0.703703        0.7227882481751825        -0.64        
H_OH        H        -0.022841514369103106        0.01896595162554916        0.0        0.44        
H_OH        H        0.0009265096227910846        0.1160261556153507        0.0        0.44        
H_OH        H        -0.022091553535065728        0.13560617499144106        0.0        0.44        
H_OH        H        0.021633413527353294        0.3593903603203781        0.0        0.44        
H_OH        H        0.006320646919452809        0.48550096358594047        0.0        0.44        
H_OH        H        0.012040394885273958        0.5940068085763052        0.0        0.44        
H_OH        H        0.14306771007746547        0.03287245873768809        0.0        0.44        
H_OH        H        0.14746111141566792        0.09687710968044998        0.0        0.44        
H_OH        H        0.11087646914874029        0.1480646249906169        0.0        0.44        
H_OH        H        0.12223218585286218        0.3751326898106951        0.0        0.44        
H_OH        H        0.1474502823631814        0.46730750626681533        0.0        0.44        
H_OH        H        0.1122409605411195        0.5935299254924377        0.0        0.44        
H_OH        H        0.2020603619217466        0.036591902802641574        0.0        0.44        
H_OH        H        0.19138378007475196        0.11570406071026407        0.0        0.44        
H_OH        H        0.16592783374441167        0.13735112516325157        0.0        0.44        
H_OH        H        0.17433473647682243        0.3710195574244577        0.0        0.44        
H_OH        H        0.202194583323174        0.4809210474326267        0.0        0.44        
H_OH        H        0.17893802254045718        0.5958190671300237        0.0        0.44        
H_OH        H        0.45044187653563866        0.08810372171387558        0.0        0.44        
H_OH        H        0.4666644596165693        0.17150352112838038        0.0        0.44        
H_OH        H        0.4580445992832748        0.4281270656532718        0.0        0.44        
H_OH        H        0.8324113715257445        0.030017955873186737        0.0        0.44        
H_OH        H        0.8046758166978011        0.11462710589036607        0.0        0.44        
H_OH        H        0.8261348212558852        0.14844841073591786        0.0        0.44        
H_OH        H        0.8042086430601522        0.37370631802421334        0.0        0.44        
H_OH        H        0.8001030580123902        0.4826631055526945        0.0        0.44        
H_OH        H        0.8353279861008797        0.5749974455737369        0.0        0.44        
H_OH        H        0.8862430699399119        0.03893571868218419        0.0        0.44        
H_OH        H        0.875345468114862        0.11604276904927315        0.0        0.44        
H_OH        H        0.8652695901715969        0.15084977074816866        0.0        0.44        
H_OH        H        0.8579840831616536        0.3675016656663178        0.0        0.44        
H_OH        H        0.8911573654631562        0.47954397041754615        0.0        0.44        
H_OH        H        0.8692014278270364        0.5967604154530767        0.0        0.44        
H_OH        H        0.9478541955311736        0.08355593621788573        0.0        0.44        
H_OH        H        0.9900551559914006        0.15661450608297978        0.0        0.44        
H_OH        H        0.9477715858362574        0.4166946801563055        0.0        0.44        
H_OH        H        -0.022832290346787416        0.6859883568526322        0.0        0.44        
H_OH        H        0.14777741086519175        0.6869975647358834        0.0        0.44        
H_OH        H        0.1720661804906761        0.7024781556332532        0.0        0.44        
H_OH        H        0.8346904645354531        0.6907626063394936        0.0        0.44        
H_OH        H        0.8689675870530472        0.7078070597803781        0.0        0.44        
H_OH        H        0.4462681007016524        0.7449096356181015        0.0        0.44        
H_OH        H        0.9601878714784021        0.7624850044399029        0.0        0.44        
H_OH        H        0.020092159942754956        0.770421610882351        0.0        0.44        
H_OH        H        0.11513308244223516        0.7804122325852861        0.0        0.44        
H_OH        H        0.18479424370559783        0.7825473771470155        0.0        0.44        
H_OH        H        0.7900031092557347        0.7633415078657163        0.0        0.44        
H_OH        H        0.8736653751832287        0.7826723955738892        0.0        0.44        
H_OH        H        0.4662698915857785        0.7270178403556832        0.0        0.44        
H_OH        H        0.9823293240693554        0.7225636553647675        0.0        0.44        
H_OH        H        0.02114805167502375        0.02739091659346915        0.7473283211678833        0.44        
H_OH        H        0.01508828715672283        0.1102026115519671        0.7473283211678833        0.44        
H_OH        H        0.01934513697038688        0.14210609080852987        0.7473283211678833        0.44        
H_OH        H        0.014782137480354975        0.3697341562303149        0.7473283211678833        0.44        
H_OH        H        -0.021952167956386354        0.4694579765316458        0.7473283211678833        0.44        
H_OH        H        0.008181188582845387        0.5959730321869624        0.7473283211678833        0.44        
H_OH        H        0.14758007701448067        0.022084797607344307        0.7473283211678833        0.44        
H_OH        H        0.11223890213460966        0.11204550258571679        0.7473283211678833        0.44        
H_OH        H        0.1477880264161148        0.1312949280240084        0.7473283211678833        0.44        
H_OH        H        0.12837742782679537        0.3750477391221107        0.7473283211678833        0.44        
H_OH        H        0.1367632412397023        0.48306847077789244        0.7473283211678833        0.44        
H_OH        H        0.12534484053015713        0.5975257787842394        0.7473283211678833        0.44        
H_OH        H        0.1678632494668647        0.030505337959510916        0.7473283211678833        0.44        
H_OH        H        0.18671884897500987        0.11603173668239906        0.7473283211678833        0.44        
H_OH        H        0.16670193776831627        0.13933479903453846        0.7473283211678833        0.44        
H_OH        H        0.19016052465981326        0.3751458687764972        0.7473283211678833        0.44        
H_OH        H        0.1802776551678899        0.48521361147290054        0.7473283211678833        0.44        
H_OH        H        0.20700377978819942        0.586288003356293        0.7473283211678833        0.44        
H_OH        H        0.4464482596225811        0.07916230753893999        0.7473283211678833        0.44        
H_OH        H        0.449228880630264        0.16033177166504653        0.7473283211678833        0.44        
H_OH        H        0.4696190874198077        0.430844474044914        0.7473283211678833        0.44        
H_OH        H        0.8060226104208914        0.04101001262929096        0.7473283211678833        0.44        
H_OH        H        0.8022970551281362        0.11357655662459815        0.7473283211678833        0.44        
H_OH        H        0.7937424429483187        0.1430183647088837        0.7473283211678833        0.44        
H_OH        H        0.7930049324662887        0.3640796546303632        0.7473283211678833        0.44        
H_OH        H        0.8290714470467303        0.47910751893119174        0.7473283211678833        0.44        
H_OH        H        0.7945867187458379        0.5886310249993062        0.7473283211678833        0.44        
H_OH        H        0.8615979360506605        0.03751281240846487        0.7473283211678833        0.44        
H_OH        H        0.8553230009027903        0.10450857095699101        0.7473283211678833        0.44        
H_OH        H        0.8866914282915034        0.1497795686649414        0.7473283211678833        0.44        
H_OH        H        0.8940629841167442        0.3647777141964436        0.7473283211678833        0.44        
H_OH        H        0.8648632578497074        0.4839813434039177        0.7473283211678833        0.44        
H_OH        H        0.8561803779322604        0.5873712527478882        0.7473283211678833        0.44        
H_OH        H        0.9713889847555937        0.09737145097548934        0.7473283211678833        0.44        
H_OH        H        0.9689404419628336        0.1716006358522414        0.7473283211678833        0.44        
H_OH        H        0.9602797845232902        0.4291899105854702        0.7473283211678833        0.44        
H_OH        H        0.010984097887186708        0.7057507506339109        0.7473283211678833        0.44        
H_OH        H        0.10270790369181292        0.6903176616654083        0.7473283211678833        0.44        
H_OH        H        0.17900974063398645        0.7069596847122598        0.7473283211678833        0.44        
H_OH        H        0.8172100740799643        0.708135584756452        0.7473283211678833        0.44        
H_OH        H        0.8974683119914676        0.6894311389259987        0.7473283211678833        0.44        
H_OH        H        0.491381016505877        0.7439484464131725        0.7473283211678833        0.44        
H_OH        H        0.9538861906633237        0.7585516633395512        0.7473283211678833        0.44        
H_OH        H        0.022183359575985627        0.7648653188265828        0.7473283211678833        0.44        
H_OH        H        0.13119524108058006        0.7818336316158273        0.7473283211678833        0.44        
H_OH        H        0.16466716087105818        0.7600447258852804        0.7473283211678833        0.44        
H_OH        H        0.7961589884382705        0.7756491982559618        0.7473283211678833        0.44        
H_OH        H        0.8978252033140063        0.760251370181643        0.7473283211678833        0.44        
H_OH        H        0.44856262631483923        0.7146830701335256        0.7473283211678833        0.44        
H_OH        H        0.9905444492128064        0.7107355232455794        0.7473283211678833        0.44        
