data_graphite_ortho

_audit_creation_method RASPA-1.0
_audit_creation_date 2012-2-3
_audit_author_name 'David Dubbeldam'

_cell_length_a    39.36    
_cell_length_b    38.339999999999996    
_cell_length_c    13.7    
_cell_angle_alpha 90
_cell_angle_beta  90
_cell_angle_gamma 90
_cell_volume      20674.15      

_symmetry_cell_setting          triclinic
_symmetry_space_group_name_Hall 'P 1'
_symmetry_space_group_name_H-M  'P 1'
_symmetry_Int_Tables_number     1

_symmetry_equiv_pos_as_xyz 'x,y,z'

loop_
_atom_site_label
_atom_site_type_symbol
_atom_site_fract_x
_atom_site_fract_y
_atom_site_fract_z
_atom_site_charge
C_FG        C        0.0        0.018519        0.12913861313868613        0.2        
C2        C        0.03125        0.074075        0.12913861313868613        0        
C3        C        0.0        0.092592        0.12913861313868613        0        
C4        C        0.03125        0.037037        0.12913861313868613        0        
C1        C        0.0        0.12963        0.12913861313868613        0        
C2        C        0.03125        0.185185        0.12913861313868613        0        
C3        C        0.0        0.203703        0.12913861313868613        0        
C4        C        0.03125        0.148148        0.12913861313868613        0        
C_FG        C        0.0        0.24074099999999998        0.12913861313868613        0.2        
C2        C        0.03125        0.296297        0.12913861313868613        0        
C3        C        0.0        0.314815        0.12913861313868613        0        
C4        C        0.03125        0.259259        0.12913861313868613        0        
C1        C        0.0        0.351852        0.12913861313868613        0        
C2        C        0.03125        0.407408        0.12913861313868613        0        
C3        C        0.0        0.425925        0.12913861313868613        0        
C4        C        0.03125        0.37037        0.12913861313868613        0        
C_FG        C        0.0        0.46296300000000007        0.12913861313868613        0.2        
C2        C        0.03125        0.518519        0.12913861313868613        0        
C3        C        0.0        0.537037        0.12913861313868613        0        
C4        C        0.03125        0.481481        0.12913861313868613        0        
C1        C        0.0        0.574075        0.12913861313868613        0        
C2        C        0.03125        0.62963        0.12913861313868613        0        
C3        C        0.0        0.648148        0.12913861313868613        0        
C4        C        0.03125        0.592592        0.12913861313868613        0        
C1        C        0.0625        0.018519        0.12913861313868613        0        
C2        C        0.09375        0.074075        0.12913861313868613        0        
C3        C        0.0625        0.092592        0.12913861313868613        0        
C4        C        0.09375        0.037037        0.12913861313868613        0        
C1        C        0.0625        0.12963        0.12913861313868613        0        
C2        C        0.09375        0.185185        0.12913861313868613        0        
C3        C        0.0625        0.203703        0.12913861313868613        0        
C4        C        0.09375        0.148148        0.12913861313868613        0        
C1        C        0.0625        0.24074099999999998        0.12913861313868613        0        
C2        C        0.09375        0.296297        0.12913861313868613        0        
C3        C        0.0625        0.314815        0.12913861313868613        0        
C4        C        0.09375        0.259259        0.12913861313868613        0        
C1        C        0.0625        0.351852        0.12913861313868613        0        
C2        C        0.09375        0.407408        0.12913861313868613        0        
C3        C        0.0625        0.425925        0.12913861313868613        0        
C4        C        0.09375        0.37037        0.12913861313868613        0        
C1        C        0.0625        0.46296300000000007        0.12913861313868613        0        
C2        C        0.09375        0.518519        0.12913861313868613        0        
C3        C        0.0625        0.537037        0.12913861313868613        0        
C4        C        0.09375        0.481481        0.12913861313868613        0        
C1        C        0.0625        0.574075        0.12913861313868613        0        
C2        C        0.09375        0.62963        0.12913861313868613        0        
C3        C        0.0625        0.648148        0.12913861313868613        0        
C4        C        0.09375        0.592592        0.12913861313868613        0        
C1        C        0.125        0.018519        0.12913861313868613        0        
C2        C        0.15625        0.074075        0.12913861313868613        0        
C3        C        0.125        0.092592        0.12913861313868613        0        
C4        C        0.15625        0.037037        0.12913861313868613        0        
C1        C        0.125        0.12963        0.12913861313868613        0        
C2        C        0.15625        0.185185        0.12913861313868613        0        
C3        C        0.125        0.203703        0.12913861313868613        0        
C4        C        0.15625        0.148148        0.12913861313868613        0        
C1        C        0.125        0.24074099999999998        0.12913861313868613        0        
C2        C        0.15625        0.296297        0.12913861313868613        0        
C3        C        0.125        0.314815        0.12913861313868613        0        
C4        C        0.15625        0.259259        0.12913861313868613        0        
C1        C        0.125        0.351852        0.12913861313868613        0        
C2        C        0.15625        0.407408        0.12913861313868613        0        
C3        C        0.125        0.425925        0.12913861313868613        0        
C4        C        0.15625        0.37037        0.12913861313868613        0        
C1        C        0.125        0.46296300000000007        0.12913861313868613        0        
C2        C        0.15625        0.518519        0.12913861313868613        0        
C3        C        0.125        0.537037        0.12913861313868613        0        
C4        C        0.15625        0.481481        0.12913861313868613        0        
C1        C        0.125        0.574075        0.12913861313868613        0        
C2        C        0.15625        0.62963        0.12913861313868613        0        
C3        C        0.125        0.648148        0.12913861313868613        0        
C4        C        0.15625        0.592592        0.12913861313868613        0        
C_FG        C        0.1875        0.018519        0.12913861313868613        0.2        
C2        C        0.21875        0.074075        0.12913861313868613        0        
C3        C        0.1875        0.092592        0.12913861313868613        0        
C4        C        0.21875        0.037037        0.12913861313868613        0        
C1        C        0.1875        0.12963        0.12913861313868613        0        
C2        C        0.21875        0.185185        0.12913861313868613        0        
C3        C        0.1875        0.203703        0.12913861313868613        0        
C4        C        0.21875        0.148148        0.12913861313868613        0        
C_FG        C        0.1875        0.24074099999999998        0.12913861313868613        0.2        
C2        C        0.21875        0.296297        0.12913861313868613        0        
C3        C        0.1875        0.314815        0.12913861313868613        0        
C4        C        0.21875        0.259259        0.12913861313868613        0        
C1        C        0.1875        0.351852        0.12913861313868613        0        
C2        C        0.21875        0.407408        0.12913861313868613        0        
C3        C        0.1875        0.425925        0.12913861313868613        0        
C4        C        0.21875        0.37037        0.12913861313868613        0        
C_FG        C        0.1875        0.46296300000000007        0.12913861313868613        0.2        
C2        C        0.21875        0.518519        0.12913861313868613        0        
C3        C        0.1875        0.537037        0.12913861313868613        0        
C4        C        0.21875        0.481481        0.12913861313868613        0        
C1        C        0.1875        0.574075        0.12913861313868613        0        
C2        C        0.21875        0.62963        0.12913861313868613        0        
C3        C        0.1875        0.648148        0.12913861313868613        0        
C4        C        0.21875        0.592592        0.12913861313868613        0        
C1        C        0.25        0.018519        0.12913861313868613        0        
C2        C        0.28125        0.074075        0.12913861313868613        0        
C3        C        0.25        0.092592        0.12913861313868613        0        
C4        C        0.28125        0.037037        0.12913861313868613        0        
C1        C        0.25        0.12963        0.12913861313868613        0        
C2        C        0.28125        0.185185        0.12913861313868613        0        
C3        C        0.25        0.203703        0.12913861313868613        0        
C4        C        0.28125        0.148148        0.12913861313868613        0        
C1        C        0.25        0.24074099999999998        0.12913861313868613        0        
C2        C        0.28125        0.296297        0.12913861313868613        0        
C3        C        0.25        0.314815        0.12913861313868613        0        
C4        C        0.28125        0.259259        0.12913861313868613        0        
C1        C        0.25        0.351852        0.12913861313868613        0        
C2        C        0.28125        0.407408        0.12913861313868613        0        
C3        C        0.25        0.425925        0.12913861313868613        0        
C4        C        0.28125        0.37037        0.12913861313868613        0        
C1        C        0.25        0.46296300000000007        0.12913861313868613        0        
C2        C        0.28125        0.518519        0.12913861313868613        0        
C3        C        0.25        0.537037        0.12913861313868613        0        
C4        C        0.28125        0.481481        0.12913861313868613        0        
C1        C        0.25        0.574075        0.12913861313868613        0        
C2        C        0.28125        0.62963        0.12913861313868613        0        
C3        C        0.25        0.648148        0.12913861313868613        0        
C4        C        0.28125        0.592592        0.12913861313868613        0        
C1        C        0.3125        0.018519        0.12913861313868613        0        
C2        C        0.34375        0.074075        0.12913861313868613        0        
C3        C        0.3125        0.092592        0.12913861313868613        0        
C4        C        0.34375        0.037037        0.12913861313868613        0        
C1        C        0.3125        0.12963        0.12913861313868613        0        
C2        C        0.34375        0.185185        0.12913861313868613        0        
C3        C        0.3125        0.203703        0.12913861313868613        0        
C4        C        0.34375        0.148148        0.12913861313868613        0        
C1        C        0.3125        0.24074099999999998        0.12913861313868613        0        
C2        C        0.34375        0.296297        0.12913861313868613        0        
C3        C        0.3125        0.314815        0.12913861313868613        0        
C4        C        0.34375        0.259259        0.12913861313868613        0        
C1        C        0.3125        0.351852        0.12913861313868613        0        
C2        C        0.34375        0.407408        0.12913861313868613        0        
C3        C        0.3125        0.425925        0.12913861313868613        0        
C4        C        0.34375        0.37037        0.12913861313868613        0        
C1        C        0.3125        0.46296300000000007        0.12913861313868613        0        
C2        C        0.34375        0.518519        0.12913861313868613        0        
C3        C        0.3125        0.537037        0.12913861313868613        0        
C4        C        0.34375        0.481481        0.12913861313868613        0        
C1        C        0.3125        0.574075        0.12913861313868613        0        
C2        C        0.34375        0.62963        0.12913861313868613        0        
C3        C        0.3125        0.648148        0.12913861313868613        0        
C4        C        0.34375        0.592592        0.12913861313868613        0        
C_FG        C        0.375        0.018519        0.12913861313868613        0.2        
C2        C        0.40625        0.074075        0.12913861313868613        0        
C3        C        0.375        0.092592        0.12913861313868613        0        
C4        C        0.40625        0.037037        0.12913861313868613        0        
C1        C        0.375        0.12963        0.12913861313868613        0        
C2        C        0.40625        0.185185        0.12913861313868613        0        
C3        C        0.375        0.203703        0.12913861313868613        0        
C4        C        0.40625        0.148148        0.12913861313868613        0        
C_FG        C        0.375        0.24074099999999998        0.12913861313868613        0.2        
C2        C        0.40625        0.296297        0.12913861313868613        0        
C3        C        0.375        0.314815        0.12913861313868613        0        
C4        C        0.40625        0.259259        0.12913861313868613        0        
C1        C        0.375        0.351852        0.12913861313868613        0        
C2        C        0.40625        0.407408        0.12913861313868613        0        
C3        C        0.375        0.425925        0.12913861313868613        0        
C4        C        0.40625        0.37037        0.12913861313868613        0        
C_FG        C        0.375        0.46296300000000007        0.12913861313868613        0.2        
C2        C        0.40625        0.518519        0.12913861313868613        0        
C3        C        0.375        0.537037        0.12913861313868613        0        
C4        C        0.40625        0.481481        0.12913861313868613        0        
C1        C        0.375        0.574075        0.12913861313868613        0        
C2        C        0.40625        0.62963        0.12913861313868613        0        
C3        C        0.375        0.648148        0.12913861313868613        0        
C4        C        0.40625        0.592592        0.12913861313868613        0        
C1        C        0.4375        0.018519        0.12913861313868613        0        
C2        C        0.46875        0.074075        0.12913861313868613        0        
C3        C        0.4375        0.092592        0.12913861313868613        0        
C4        C        0.46875        0.037037        0.12913861313868613        0        
C1        C        0.4375        0.12963        0.12913861313868613        0        
C2        C        0.46875        0.185185        0.12913861313868613        0        
C3        C        0.4375        0.203703        0.12913861313868613        0        
C4        C        0.46875        0.148148        0.12913861313868613        0        
C1        C        0.4375        0.24074099999999998        0.12913861313868613        0        
C2        C        0.46875        0.296297        0.12913861313868613        0        
C3        C        0.4375        0.314815        0.12913861313868613        0        
C4        C        0.46875        0.259259        0.12913861313868613        0        
C1        C        0.4375        0.351852        0.12913861313868613        0        
C2        C        0.46875        0.407408        0.12913861313868613        0        
C3        C        0.4375        0.425925        0.12913861313868613        0        
C4        C        0.46875        0.37037        0.12913861313868613        0        
C1        C        0.4375        0.46296300000000007        0.12913861313868613        0        
C2        C        0.46875        0.518519        0.12913861313868613        0        
C3        C        0.4375        0.537037        0.12913861313868613        0        
C4        C        0.46875        0.481481        0.12913861313868613        0        
C1        C        0.4375        0.574075        0.12913861313868613        0        
C2        C        0.46875        0.62963        0.12913861313868613        0        
C3        C        0.4375        0.648148        0.12913861313868613        0        
C4        C        0.46875        0.592592        0.12913861313868613        0        
C1        C        0.5        0.018519        0.12913861313868613        0        
C2        C        0.53125        0.074075        0.12913861313868613        0        
C3        C        0.5        0.092592        0.12913861313868613        0        
C4        C        0.53125        0.037037        0.12913861313868613        0        
C1        C        0.5        0.12963        0.12913861313868613        0        
C2        C        0.53125        0.185185        0.12913861313868613        0        
C3        C        0.5        0.203703        0.12913861313868613        0        
C4        C        0.53125        0.148148        0.12913861313868613        0        
C1        C        0.5        0.24074099999999998        0.12913861313868613        0        
C2        C        0.53125        0.296297        0.12913861313868613        0        
C3        C        0.5        0.314815        0.12913861313868613        0        
C4        C        0.53125        0.259259        0.12913861313868613        0        
C1        C        0.5        0.351852        0.12913861313868613        0        
C2        C        0.53125        0.407408        0.12913861313868613        0        
C3        C        0.5        0.425925        0.12913861313868613        0        
C4        C        0.53125        0.37037        0.12913861313868613        0        
C1        C        0.5        0.46296300000000007        0.12913861313868613        0        
C2        C        0.53125        0.518519        0.12913861313868613        0        
C3        C        0.5        0.537037        0.12913861313868613        0        
C4        C        0.53125        0.481481        0.12913861313868613        0        
C1        C        0.5        0.574075        0.12913861313868613        0        
C2        C        0.53125        0.62963        0.12913861313868613        0        
C3        C        0.5        0.648148        0.12913861313868613        0        
C4        C        0.53125        0.592592        0.12913861313868613        0        
C_FG        C        0.5625        0.018519        0.12913861313868613        0.2        
C2        C        0.59375        0.074075        0.12913861313868613        0        
C3        C        0.5625        0.092592        0.12913861313868613        0        
C4        C        0.59375        0.037037        0.12913861313868613        0        
C1        C        0.5625        0.12963        0.12913861313868613        0        
C2        C        0.59375        0.185185        0.12913861313868613        0        
C3        C        0.5625        0.203703        0.12913861313868613        0        
C4        C        0.59375        0.148148        0.12913861313868613        0        
C_FG        C        0.5625        0.24074099999999998        0.12913861313868613        0.2        
C2        C        0.59375        0.296297        0.12913861313868613        0        
C3        C        0.5625        0.314815        0.12913861313868613        0        
C4        C        0.59375        0.259259        0.12913861313868613        0        
C1        C        0.5625        0.351852        0.12913861313868613        0        
C2        C        0.59375        0.407408        0.12913861313868613        0        
C3        C        0.5625        0.425925        0.12913861313868613        0        
C4        C        0.59375        0.37037        0.12913861313868613        0        
C_FG        C        0.5625        0.46296300000000007        0.12913861313868613        0.2        
C2        C        0.59375        0.518519        0.12913861313868613        0        
C3        C        0.5625        0.537037        0.12913861313868613        0        
C4        C        0.59375        0.481481        0.12913861313868613        0        
C1        C        0.5625        0.574075        0.12913861313868613        0        
C2        C        0.59375        0.62963        0.12913861313868613        0        
C3        C        0.5625        0.648148        0.12913861313868613        0        
C4        C        0.59375        0.592592        0.12913861313868613        0        
C1        C        0.625        0.018519        0.12913861313868613        0        
C2        C        0.65625        0.074075        0.12913861313868613        0        
C3        C        0.625        0.092592        0.12913861313868613        0        
C4        C        0.65625        0.037037        0.12913861313868613        0        
C1        C        0.625        0.12963        0.12913861313868613        0        
C2        C        0.65625        0.185185        0.12913861313868613        0        
C3        C        0.625        0.203703        0.12913861313868613        0        
C4        C        0.65625        0.148148        0.12913861313868613        0        
C1        C        0.625        0.24074099999999998        0.12913861313868613        0        
C2        C        0.65625        0.296297        0.12913861313868613        0        
C3        C        0.625        0.314815        0.12913861313868613        0        
C4        C        0.65625        0.259259        0.12913861313868613        0        
C1        C        0.625        0.351852        0.12913861313868613        0        
C2        C        0.65625        0.407408        0.12913861313868613        0        
C3        C        0.625        0.425925        0.12913861313868613        0        
C4        C        0.65625        0.37037        0.12913861313868613        0        
C1        C        0.625        0.46296300000000007        0.12913861313868613        0        
C2        C        0.65625        0.518519        0.12913861313868613        0        
C3        C        0.625        0.537037        0.12913861313868613        0        
C4        C        0.65625        0.481481        0.12913861313868613        0        
C1        C        0.625        0.574075        0.12913861313868613        0        
C2        C        0.65625        0.62963        0.12913861313868613        0        
C3        C        0.625        0.648148        0.12913861313868613        0        
C4        C        0.65625        0.592592        0.12913861313868613        0        
C1        C        0.6875        0.018519        0.12913861313868613        0        
C2        C        0.71875        0.074075        0.12913861313868613        0        
C3        C        0.6875        0.092592        0.12913861313868613        0        
C4        C        0.71875        0.037037        0.12913861313868613        0        
C1        C        0.6875        0.12963        0.12913861313868613        0        
C2        C        0.71875        0.185185        0.12913861313868613        0        
C3        C        0.6875        0.203703        0.12913861313868613        0        
C4        C        0.71875        0.148148        0.12913861313868613        0        
C1        C        0.6875        0.24074099999999998        0.12913861313868613        0        
C2        C        0.71875        0.296297        0.12913861313868613        0        
C3        C        0.6875        0.314815        0.12913861313868613        0        
C4        C        0.71875        0.259259        0.12913861313868613        0        
C1        C        0.6875        0.351852        0.12913861313868613        0        
C2        C        0.71875        0.407408        0.12913861313868613        0        
C3        C        0.6875        0.425925        0.12913861313868613        0        
C4        C        0.71875        0.37037        0.12913861313868613        0        
C1        C        0.6875        0.46296300000000007        0.12913861313868613        0        
C2        C        0.71875        0.518519        0.12913861313868613        0        
C3        C        0.6875        0.537037        0.12913861313868613        0        
C4        C        0.71875        0.481481        0.12913861313868613        0        
C1        C        0.6875        0.574075        0.12913861313868613        0        
C2        C        0.71875        0.62963        0.12913861313868613        0        
C3        C        0.6875        0.648148        0.12913861313868613        0        
C4        C        0.71875        0.592592        0.12913861313868613        0        
C_FG        C        0.75        0.018519        0.12913861313868613        0.2        
C2        C        0.78125        0.074075        0.12913861313868613        0        
C3        C        0.75        0.092592        0.12913861313868613        0        
C4        C        0.78125        0.037037        0.12913861313868613        0        
C1        C        0.75        0.12963        0.12913861313868613        0        
C2        C        0.78125        0.185185        0.12913861313868613        0        
C3        C        0.75        0.203703        0.12913861313868613        0        
C4        C        0.78125        0.148148        0.12913861313868613        0        
C_FG        C        0.75        0.24074099999999998        0.12913861313868613        0.2        
C2        C        0.78125        0.296297        0.12913861313868613        0        
C3        C        0.75        0.314815        0.12913861313868613        0        
C4        C        0.78125        0.259259        0.12913861313868613        0        
C1        C        0.75        0.351852        0.12913861313868613        0        
C2        C        0.78125        0.407408        0.12913861313868613        0        
C3        C        0.75        0.425925        0.12913861313868613        0        
C4        C        0.78125        0.37037        0.12913861313868613        0        
C_FG        C        0.75        0.46296300000000007        0.12913861313868613        0.2        
C2        C        0.78125        0.518519        0.12913861313868613        0        
C3        C        0.75        0.537037        0.12913861313868613        0        
C4        C        0.78125        0.481481        0.12913861313868613        0        
C1        C        0.75        0.574075        0.12913861313868613        0        
C2        C        0.78125        0.62963        0.12913861313868613        0        
C3        C        0.75        0.648148        0.12913861313868613        0        
C4        C        0.78125        0.592592        0.12913861313868613        0        
C1        C        0.8125        0.018519        0.12913861313868613        0        
C2        C        0.84375        0.074075        0.12913861313868613        0        
C3        C        0.8125        0.092592        0.12913861313868613        0        
C4        C        0.84375        0.037037        0.12913861313868613        0        
C1        C        0.8125        0.12963        0.12913861313868613        0        
C2        C        0.84375        0.185185        0.12913861313868613        0        
C3        C        0.8125        0.203703        0.12913861313868613        0        
C4        C        0.84375        0.148148        0.12913861313868613        0        
C1        C        0.8125        0.24074099999999998        0.12913861313868613        0        
C2        C        0.84375        0.296297        0.12913861313868613        0        
C3        C        0.8125        0.314815        0.12913861313868613        0        
C4        C        0.84375        0.259259        0.12913861313868613        0        
C1        C        0.8125        0.351852        0.12913861313868613        0        
C2        C        0.84375        0.407408        0.12913861313868613        0        
C3        C        0.8125        0.425925        0.12913861313868613        0        
C4        C        0.84375        0.37037        0.12913861313868613        0        
C1        C        0.8125        0.46296300000000007        0.12913861313868613        0        
C2        C        0.84375        0.518519        0.12913861313868613        0        
C3        C        0.8125        0.537037        0.12913861313868613        0        
C4        C        0.84375        0.481481        0.12913861313868613        0        
C1        C        0.8125        0.574075        0.12913861313868613        0        
C2        C        0.84375        0.62963        0.12913861313868613        0        
C3        C        0.8125        0.648148        0.12913861313868613        0        
C4        C        0.84375        0.592592        0.12913861313868613        0        
C1        C        0.875        0.018519        0.12913861313868613        0        
C2        C        0.9062500000000001        0.074075        0.12913861313868613        0        
C3        C        0.875        0.092592        0.12913861313868613        0        
C4        C        0.9062500000000001        0.037037        0.12913861313868613        0        
C1        C        0.875        0.12963        0.12913861313868613        0        
C2        C        0.9062500000000001        0.185185        0.12913861313868613        0        
C3        C        0.875        0.203703        0.12913861313868613        0        
C4        C        0.9062500000000001        0.148148        0.12913861313868613        0        
C1        C        0.875        0.24074099999999998        0.12913861313868613        0        
C2        C        0.9062500000000001        0.296297        0.12913861313868613        0        
C3        C        0.875        0.314815        0.12913861313868613        0        
C4        C        0.9062500000000001        0.259259        0.12913861313868613        0        
C1        C        0.875        0.351852        0.12913861313868613        0        
C2        C        0.9062500000000001        0.407408        0.12913861313868613        0        
C3        C        0.875        0.425925        0.12913861313868613        0        
C4        C        0.9062500000000001        0.37037        0.12913861313868613        0        
C1        C        0.875        0.46296300000000007        0.12913861313868613        0        
C2        C        0.9062500000000001        0.518519        0.12913861313868613        0        
C3        C        0.875        0.537037        0.12913861313868613        0        
C4        C        0.9062500000000001        0.481481        0.12913861313868613        0        
C1        C        0.875        0.574075        0.12913861313868613        0        
C2        C        0.9062500000000001        0.62963        0.12913861313868613        0        
C3        C        0.875        0.648148        0.12913861313868613        0        
C4        C        0.9062500000000001        0.592592        0.12913861313868613        0        
C_FG        C        0.9375        0.018519        0.12913861313868613        0.2        
C2        C        0.9687500000000001        0.074075        0.12913861313868613        0        
C3        C        0.9375        0.092592        0.12913861313868613        0        
C4        C        0.9687500000000001        0.037037        0.12913861313868613        0        
C1        C        0.9375        0.12963        0.12913861313868613        0        
C2        C        0.9687500000000001        0.185185        0.12913861313868613        0        
C3        C        0.9375        0.203703        0.12913861313868613        0        
C4        C        0.9687500000000001        0.148148        0.12913861313868613        0        
C_FG        C        0.9375        0.24074099999999998        0.12913861313868613        0.2        
C2        C        0.9687500000000001        0.296297        0.12913861313868613        0        
C3        C        0.9375        0.314815        0.12913861313868613        0        
C4        C        0.9687500000000001        0.259259        0.12913861313868613        0        
C1        C        0.9375        0.351852        0.12913861313868613        0        
C2        C        0.9687500000000001        0.407408        0.12913861313868613        0        
C3        C        0.9375        0.425925        0.12913861313868613        0        
C4        C        0.9687500000000001        0.37037        0.12913861313868613        0        
C_FG        C        0.9375        0.46296300000000007        0.12913861313868613        0.2        
C2        C        0.9687500000000001        0.518519        0.12913861313868613        0        
C3        C        0.9375        0.537037        0.12913861313868613        0        
C4        C        0.9687500000000001        0.481481        0.12913861313868613        0        
C1        C        0.9375        0.574075        0.12913861313868613        0        
C2        C        0.9687500000000001        0.62963        0.12913861313868613        0        
C3        C        0.9375        0.648148        0.12913861313868613        0        
C4        C        0.9687500000000001        0.592592        0.12913861313868613        0        
C_FG        C        0.0        0.685186        0.12913861313868613        0.2        
C1        C        0.0625        0.685186        0.12913861313868613        0        
C1        C        0.125        0.685186        0.12913861313868613        0        
C_FG        C        0.1875        0.685186        0.12913861313868613        0.2        
C1        C        0.25        0.685186        0.12913861313868613        0        
C1        C        0.3125        0.685186        0.12913861313868613        0        
C_FG        C        0.375        0.685186        0.12913861313868613        0.2        
C1        C        0.4375        0.685186        0.12913861313868613        0        
C1        C        0.5        0.685186        0.12913861313868613        0        
C_FG        C        0.5625        0.685186        0.12913861313868613        0.2        
C1        C        0.625        0.685186        0.12913861313868613        0        
C1        C        0.6875        0.685186        0.12913861313868613        0        
C_FG        C        0.75        0.685186        0.12913861313868613        0.2        
C1        C        0.8125        0.685186        0.12913861313868613        0        
C1        C        0.875        0.685186        0.12913861313868613        0        
C_FG        C        0.9375        0.685186        0.12913861313868613        0.2        
C2        C        0.03125        0.740741        0.12913861313868613        0        
C2        C        0.09375        0.740741        0.12913861313868613        0        
C2        C        0.15625        0.740741        0.12913861313868613        0        
C2        C        0.21875        0.740741        0.12913861313868613        0        
C2        C        0.28125        0.740741        0.12913861313868613        0        
C2        C        0.34375        0.740741        0.12913861313868613        0        
C2        C        0.40625        0.740741        0.12913861313868613        0        
C2        C        0.46875        0.740741        0.12913861313868613        0        
C2        C        0.53125        0.740741        0.12913861313868613        0        
C2        C        0.59375        0.740741        0.12913861313868613        0        
C2        C        0.65625        0.740741        0.12913861313868613        0        
C2        C        0.71875        0.740741        0.12913861313868613        0        
C2        C        0.78125        0.740741        0.12913861313868613        0        
C2        C        0.84375        0.740741        0.12913861313868613        0        
C2        C        0.9062500000000001        0.740741        0.12913861313868613        0        
C2        C        0.9687500000000001        0.740741        0.12913861313868613        0        
C3        C        0.0        0.759259        0.12913861313868613        0        
C3        C        0.0625        0.759259        0.12913861313868613        0        
C3        C        0.125        0.759259        0.12913861313868613        0        
C3        C        0.1875        0.759259        0.12913861313868613        0        
C3        C        0.25        0.759259        0.12913861313868613        0        
C3        C        0.3125        0.759259        0.12913861313868613        0        
C3        C        0.375        0.759259        0.12913861313868613        0        
C3        C        0.4375        0.759259        0.12913861313868613        0        
C3        C        0.5        0.759259        0.12913861313868613        0        
C3        C        0.5625        0.759259        0.12913861313868613        0        
C3        C        0.625        0.759259        0.12913861313868613        0        
C3        C        0.6875        0.759259        0.12913861313868613        0        
C3        C        0.75        0.759259        0.12913861313868613        0        
C3        C        0.8125        0.759259        0.12913861313868613        0        
C3        C        0.875        0.759259        0.12913861313868613        0        
C3        C        0.9375        0.759259        0.12913861313868613        0        
C4        C        0.03125        0.703703        0.12913861313868613        0        
C4        C        0.09375        0.703703        0.12913861313868613        0        
C4        C        0.15625        0.703703        0.12913861313868613        0        
C4        C        0.21875        0.703703        0.12913861313868613        0        
C4        C        0.28125        0.703703        0.12913861313868613        0        
C4        C        0.34375        0.703703        0.12913861313868613        0        
C4        C        0.40625        0.703703        0.12913861313868613        0        
C4        C        0.46875        0.703703        0.12913861313868613        0        
C4        C        0.53125        0.703703        0.12913861313868613        0        
C4        C        0.59375        0.703703        0.12913861313868613        0        
C4        C        0.65625        0.703703        0.12913861313868613        0        
C4        C        0.71875        0.703703        0.12913861313868613        0        
C4        C        0.78125        0.703703        0.12913861313868613        0        
C4        C        0.84375        0.703703        0.12913861313868613        0        
C4        C        0.9062500000000001        0.703703        0.12913861313868613        0        
C4        C        0.9687500000000001        0.703703        0.12913861313868613        0        
C1        C        0.0        0.796297        0.12913861313868613        0        
C1        C        0.0625        0.796297        0.12913861313868613        0        
C1        C        0.125        0.796297        0.12913861313868613        0        
C1        C        0.1875        0.796297        0.12913861313868613        0        
C1        C        0.25        0.796297        0.12913861313868613        0        
C1        C        0.3125        0.796297        0.12913861313868613        0        
C1        C        0.375        0.796297        0.12913861313868613        0        
C1        C        0.4375        0.796297        0.12913861313868613        0        
C1        C        0.5        0.796297        0.12913861313868613        0        
C1        C        0.5625        0.796297        0.12913861313868613        0        
C1        C        0.625        0.796297        0.12913861313868613        0        
C1        C        0.6875        0.796297        0.12913861313868613        0        
C1        C        0.75        0.796297        0.12913861313868613        0        
C1        C        0.8125        0.796297        0.12913861313868613        0        
C1        C        0.875        0.796297        0.12913861313868613        0        
C1        C        0.9375        0.796297        0.12913861313868613        0        
C2        C        0.03125        0.851852        0.12913861313868613        0        
C2        C        0.09375        0.851852        0.12913861313868613        0        
C2        C        0.15625        0.851852        0.12913861313868613        0        
C2        C        0.21875        0.851852        0.12913861313868613        0        
C2        C        0.28125        0.851852        0.12913861313868613        0        
C2        C        0.34375        0.851852        0.12913861313868613        0        
C2        C        0.40625        0.851852        0.12913861313868613        0        
C2        C        0.46875        0.851852        0.12913861313868613        0        
C2        C        0.53125        0.851852        0.12913861313868613        0        
C2        C        0.59375        0.851852        0.12913861313868613        0        
C2        C        0.65625        0.851852        0.12913861313868613        0        
C2        C        0.71875        0.851852        0.12913861313868613        0        
C2        C        0.78125        0.851852        0.12913861313868613        0        
C2        C        0.84375        0.851852        0.12913861313868613        0        
C2        C        0.9062500000000001        0.851852        0.12913861313868613        0        
C2        C        0.9687500000000001        0.851852        0.12913861313868613        0        
C3        C        0.0        0.87037        0.12913861313868613        0        
C3        C        0.0625        0.87037        0.12913861313868613        0        
C3        C        0.125        0.87037        0.12913861313868613        0        
C3        C        0.1875        0.87037        0.12913861313868613        0        
C3        C        0.25        0.87037        0.12913861313868613        0        
C3        C        0.3125        0.87037        0.12913861313868613        0        
C3        C        0.375        0.87037        0.12913861313868613        0        
C3        C        0.4375        0.87037        0.12913861313868613        0        
C3        C        0.5        0.87037        0.12913861313868613        0        
C3        C        0.5625        0.87037        0.12913861313868613        0        
C3        C        0.625        0.87037        0.12913861313868613        0        
C3        C        0.6875        0.87037        0.12913861313868613        0        
C3        C        0.75        0.87037        0.12913861313868613        0        
C3        C        0.8125        0.87037        0.12913861313868613        0        
C3        C        0.875        0.87037        0.12913861313868613        0        
C3        C        0.9375        0.87037        0.12913861313868613        0        
C4        C        0.03125        0.814814        0.12913861313868613        0        
C4        C        0.09375        0.814814        0.12913861313868613        0        
C4        C        0.15625        0.814814        0.12913861313868613        0        
C4        C        0.21875        0.814814        0.12913861313868613        0        
C4        C        0.28125        0.814814        0.12913861313868613        0        
C4        C        0.34375        0.814814        0.12913861313868613        0        
C4        C        0.40625        0.814814        0.12913861313868613        0        
C4        C        0.46875        0.814814        0.12913861313868613        0        
C4        C        0.53125        0.814814        0.12913861313868613        0        
C4        C        0.59375        0.814814        0.12913861313868613        0        
C4        C        0.65625        0.814814        0.12913861313868613        0        
C4        C        0.71875        0.814814        0.12913861313868613        0        
C4        C        0.78125        0.814814        0.12913861313868613        0        
C4        C        0.84375        0.814814        0.12913861313868613        0        
C4        C        0.9062500000000001        0.814814        0.12913861313868613        0        
C4        C        0.9687500000000001        0.814814        0.12913861313868613        0        
C_FG        C        0.0        0.907408        0.12913861313868613        0.2        
C1        C        0.0625        0.907408        0.12913861313868613        0        
C1        C        0.125        0.907408        0.12913861313868613        0        
C_FG        C        0.1875        0.907408        0.12913861313868613        0.2        
C1        C        0.25        0.907408        0.12913861313868613        0        
C1        C        0.3125        0.907408        0.12913861313868613        0        
C_FG        C        0.375        0.907408        0.12913861313868613        0.2        
C1        C        0.4375        0.907408        0.12913861313868613        0        
C1        C        0.5        0.907408        0.12913861313868613        0        
C_FG        C        0.5625        0.907408        0.12913861313868613        0.2        
C1        C        0.625        0.907408        0.12913861313868613        0        
C1        C        0.6875        0.907408        0.12913861313868613        0        
C_FG        C        0.75        0.907408        0.12913861313868613        0.2        
C1        C        0.8125        0.907408        0.12913861313868613        0        
C1        C        0.875        0.907408        0.12913861313868613        0        
C_FG        C        0.9375        0.907408        0.12913861313868613        0.2        
C2        C        0.03125        0.962963        0.12913861313868613        0        
C2        C        0.09375        0.962963        0.12913861313868613        0        
C2        C        0.15625        0.962963        0.12913861313868613        0        
C2        C        0.21875        0.962963        0.12913861313868613        0        
C2        C        0.28125        0.962963        0.12913861313868613        0        
C2        C        0.34375        0.962963        0.12913861313868613        0        
C2        C        0.40625        0.962963        0.12913861313868613        0        
C2        C        0.46875        0.962963        0.12913861313868613        0        
C2        C        0.53125        0.962963        0.12913861313868613        0        
C2        C        0.59375        0.962963        0.12913861313868613        0        
C2        C        0.65625        0.962963        0.12913861313868613        0        
C2        C        0.71875        0.962963        0.12913861313868613        0        
C2        C        0.78125        0.962963        0.12913861313868613        0        
C2        C        0.84375        0.962963        0.12913861313868613        0        
C2        C        0.9062500000000001        0.962963        0.12913861313868613        0        
C2        C        0.9687500000000001        0.962963        0.12913861313868613        0        
C3        C        0.0        0.9814809999999999        0.12913861313868613        0        
C3        C        0.0625        0.9814809999999999        0.12913861313868613        0        
C3        C        0.125        0.9814809999999999        0.12913861313868613        0        
C3        C        0.1875        0.9814809999999999        0.12913861313868613        0        
C3        C        0.25        0.9814809999999999        0.12913861313868613        0        
C3        C        0.3125        0.9814809999999999        0.12913861313868613        0        
C3        C        0.375        0.9814809999999999        0.12913861313868613        0        
C3        C        0.4375        0.9814809999999999        0.12913861313868613        0        
C3        C        0.5        0.9814809999999999        0.12913861313868613        0        
C3        C        0.5625        0.9814809999999999        0.12913861313868613        0        
C3        C        0.625        0.9814809999999999        0.12913861313868613        0        
C3        C        0.6875        0.9814809999999999        0.12913861313868613        0        
C3        C        0.75        0.9814809999999999        0.12913861313868613        0        
C3        C        0.8125        0.9814809999999999        0.12913861313868613        0        
C3        C        0.875        0.9814809999999999        0.12913861313868613        0        
C3        C        0.9375        0.9814809999999999        0.12913861313868613        0        
C4        C        0.03125        0.925925        0.12913861313868613        0        
C4        C        0.09375        0.925925        0.12913861313868613        0        
C4        C        0.15625        0.925925        0.12913861313868613        0        
C4        C        0.21875        0.925925        0.12913861313868613        0        
C4        C        0.28125        0.925925        0.12913861313868613        0        
C4        C        0.34375        0.925925        0.12913861313868613        0        
C4        C        0.40625        0.925925        0.12913861313868613        0        
C4        C        0.46875        0.925925        0.12913861313868613        0        
C4        C        0.53125        0.925925        0.12913861313868613        0        
C4        C        0.59375        0.925925        0.12913861313868613        0        
C4        C        0.65625        0.925925        0.12913861313868613        0        
C4        C        0.71875        0.925925        0.12913861313868613        0        
C4        C        0.78125        0.925925        0.12913861313868613        0        
C4        C        0.84375        0.925925        0.12913861313868613        0        
C4        C        0.9062500000000001        0.925925        0.12913861313868613        0        
C4        C        0.9687500000000001        0.925925        0.12913861313868613        0        
C1        C        0.0        0.018519        0.3736641605839415        0        
C2        C        0.03125        0.074075        0.3736641605839415        0        
C3        C        0.0        0.092592        0.3736641605839415        0        
C4        C        0.03125        0.037037        0.3736641605839415        0        
C1        C        0.0        0.12963        0.3736641605839415        0        
C2        C        0.03125        0.185185        0.3736641605839415        0        
C3        C        0.0        0.203703        0.3736641605839415        0        
C4        C        0.03125        0.148148        0.3736641605839415        0        
C1        C        0.0        0.24074099999999998        0.3736641605839415        0        
C2        C        0.03125        0.296297        0.3736641605839415        0        
C3        C        0.0        0.314815        0.3736641605839415        0        
C4        C        0.03125        0.259259        0.3736641605839415        0        
C1        C        0.0        0.351852        0.3736641605839415        0        
C2        C        0.03125        0.407408        0.3736641605839415        0        
C3        C        0.0        0.425925        0.3736641605839415        0        
C4        C        0.03125        0.37037        0.3736641605839415        0        
C1        C        0.0        0.46296300000000007        0.3736641605839415        0        
C2        C        0.03125        0.518519        0.3736641605839415        0        
C3        C        0.0        0.537037        0.3736641605839415        0        
C4        C        0.03125        0.481481        0.3736641605839415        0        
C1        C        0.0        0.574075        0.3736641605839415        0        
C2        C        0.03125        0.62963        0.3736641605839415        0        
C3        C        0.0        0.648148        0.3736641605839415        0        
C4        C        0.03125        0.592592        0.3736641605839415        0        
C1        C        0.0625        0.018519        0.3736641605839415        0        
C2        C        0.09375        0.074075        0.3736641605839415        0        
C3        C        0.0625        0.092592        0.3736641605839415        0        
C4        C        0.09375        0.037037        0.3736641605839415        0        
C1        C        0.0625        0.12963        0.3736641605839415        0        
C2        C        0.09375        0.185185        0.3736641605839415        0        
C3        C        0.0625        0.203703        0.3736641605839415        0        
C4        C        0.09375        0.148148        0.3736641605839415        0        
C1        C        0.0625        0.24074099999999998        0.3736641605839415        0        
C2        C        0.09375        0.296297        0.3736641605839415        0        
C3        C        0.0625        0.314815        0.3736641605839415        0        
C4        C        0.09375        0.259259        0.3736641605839415        0        
C1        C        0.0625        0.351852        0.3736641605839415        0        
C2        C        0.09375        0.407408        0.3736641605839415        0        
C3        C        0.0625        0.425925        0.3736641605839415        0        
C4        C        0.09375        0.37037        0.3736641605839415        0        
C1        C        0.0625        0.46296300000000007        0.3736641605839415        0        
C2        C        0.09375        0.518519        0.3736641605839415        0        
C3        C        0.0625        0.537037        0.3736641605839415        0        
C4        C        0.09375        0.481481        0.3736641605839415        0        
C1        C        0.0625        0.574075        0.3736641605839415        0        
C2        C        0.09375        0.62963        0.3736641605839415        0        
C3        C        0.0625        0.648148        0.3736641605839415        0        
C4        C        0.09375        0.592592        0.3736641605839415        0        
C1        C        0.125        0.018519        0.3736641605839415        0        
C2        C        0.15625        0.074075        0.3736641605839415        0        
C3        C        0.125        0.092592        0.3736641605839415        0        
C4        C        0.15625        0.037037        0.3736641605839415        0        
C1        C        0.125        0.12963        0.3736641605839415        0        
C2        C        0.15625        0.185185        0.3736641605839415        0        
C3        C        0.125        0.203703        0.3736641605839415        0        
C4        C        0.15625        0.148148        0.3736641605839415        0        
C1        C        0.125        0.24074099999999998        0.3736641605839415        0        
C2        C        0.15625        0.296297        0.3736641605839415        0        
C3        C        0.125        0.314815        0.3736641605839415        0        
C4        C        0.15625        0.259259        0.3736641605839415        0        
C1        C        0.125        0.351852        0.3736641605839415        0        
C2        C        0.15625        0.407408        0.3736641605839415        0        
C3        C        0.125        0.425925        0.3736641605839415        0        
C4        C        0.15625        0.37037        0.3736641605839415        0        
C1        C        0.125        0.46296300000000007        0.3736641605839415        0        
C2        C        0.15625        0.518519        0.3736641605839415        0        
C3        C        0.125        0.537037        0.3736641605839415        0        
C4        C        0.15625        0.481481        0.3736641605839415        0        
C1        C        0.125        0.574075        0.3736641605839415        0        
C2        C        0.15625        0.62963        0.3736641605839415        0        
C3        C        0.125        0.648148        0.3736641605839415        0        
C4        C        0.15625        0.592592        0.3736641605839415        0        
C1        C        0.1875        0.018519        0.3736641605839415        0        
C2        C        0.21875        0.074075        0.3736641605839415        0        
C3        C        0.1875        0.092592        0.3736641605839415        0        
C4        C        0.21875        0.037037        0.3736641605839415        0        
C1        C        0.1875        0.12963        0.3736641605839415        0        
C2        C        0.21875        0.185185        0.3736641605839415        0        
C3        C        0.1875        0.203703        0.3736641605839415        0        
C4        C        0.21875        0.148148        0.3736641605839415        0        
C1        C        0.1875        0.24074099999999998        0.3736641605839415        0        
C2        C        0.21875        0.296297        0.3736641605839415        0        
C3        C        0.1875        0.314815        0.3736641605839415        0        
C4        C        0.21875        0.259259        0.3736641605839415        0        
C1        C        0.1875        0.351852        0.3736641605839415        0        
C2        C        0.21875        0.407408        0.3736641605839415        0        
C3        C        0.1875        0.425925        0.3736641605839415        0        
C4        C        0.21875        0.37037        0.3736641605839415        0        
C1        C        0.1875        0.46296300000000007        0.3736641605839415        0        
C2        C        0.21875        0.518519        0.3736641605839415        0        
C3        C        0.1875        0.537037        0.3736641605839415        0        
C4        C        0.21875        0.481481        0.3736641605839415        0        
C1        C        0.1875        0.574075        0.3736641605839415        0        
C2        C        0.21875        0.62963        0.3736641605839415        0        
C3        C        0.1875        0.648148        0.3736641605839415        0        
C4        C        0.21875        0.592592        0.3736641605839415        0        
C1        C        0.25        0.018519        0.3736641605839415        0        
C2        C        0.28125        0.074075        0.3736641605839415        0        
C3        C        0.25        0.092592        0.3736641605839415        0        
C4        C        0.28125        0.037037        0.3736641605839415        0        
C1        C        0.25        0.12963        0.3736641605839415        0        
C2        C        0.28125        0.185185        0.3736641605839415        0        
C3        C        0.25        0.203703        0.3736641605839415        0        
C4        C        0.28125        0.148148        0.3736641605839415        0        
C1        C        0.25        0.24074099999999998        0.3736641605839415        0        
C2        C        0.28125        0.296297        0.3736641605839415        0        
C3        C        0.25        0.314815        0.3736641605839415        0        
C4        C        0.28125        0.259259        0.3736641605839415        0        
C1        C        0.25        0.351852        0.3736641605839415        0        
C2        C        0.28125        0.407408        0.3736641605839415        0        
C3        C        0.25        0.425925        0.3736641605839415        0        
C4        C        0.28125        0.37037        0.3736641605839415        0        
C1        C        0.25        0.46296300000000007        0.3736641605839415        0        
C2        C        0.28125        0.518519        0.3736641605839415        0        
C3        C        0.25        0.537037        0.3736641605839415        0        
C4        C        0.28125        0.481481        0.3736641605839415        0        
C1        C        0.25        0.574075        0.3736641605839415        0        
C2        C        0.28125        0.62963        0.3736641605839415        0        
C3        C        0.25        0.648148        0.3736641605839415        0        
C4        C        0.28125        0.592592        0.3736641605839415        0        
C1        C        0.3125        0.018519        0.3736641605839415        0        
C2        C        0.34375        0.074075        0.3736641605839415        0        
C3        C        0.3125        0.092592        0.3736641605839415        0        
C4        C        0.34375        0.037037        0.3736641605839415        0        
C1        C        0.3125        0.12963        0.3736641605839415        0        
C2        C        0.34375        0.185185        0.3736641605839415        0        
C3        C        0.3125        0.203703        0.3736641605839415        0        
C4        C        0.34375        0.148148        0.3736641605839415        0        
C1        C        0.3125        0.24074099999999998        0.3736641605839415        0        
C2        C        0.34375        0.296297        0.3736641605839415        0        
C3        C        0.3125        0.314815        0.3736641605839415        0        
C4        C        0.34375        0.259259        0.3736641605839415        0        
C1        C        0.3125        0.351852        0.3736641605839415        0        
C2        C        0.34375        0.407408        0.3736641605839415        0        
C3        C        0.3125        0.425925        0.3736641605839415        0        
C4        C        0.34375        0.37037        0.3736641605839415        0        
C1        C        0.3125        0.46296300000000007        0.3736641605839415        0        
C2        C        0.34375        0.518519        0.3736641605839415        0        
C3        C        0.3125        0.537037        0.3736641605839415        0        
C4        C        0.34375        0.481481        0.3736641605839415        0        
C1        C        0.3125        0.574075        0.3736641605839415        0        
C2        C        0.34375        0.62963        0.3736641605839415        0        
C3        C        0.3125        0.648148        0.3736641605839415        0        
C4        C        0.34375        0.592592        0.3736641605839415        0        
C1        C        0.375        0.018519        0.3736641605839415        0        
C2        C        0.40625        0.074075        0.3736641605839415        0        
C3        C        0.375        0.092592        0.3736641605839415        0        
C4        C        0.40625        0.037037        0.3736641605839415        0        
C1        C        0.375        0.12963        0.3736641605839415        0        
C2        C        0.40625        0.185185        0.3736641605839415        0        
C3        C        0.375        0.203703        0.3736641605839415        0        
C4        C        0.40625        0.148148        0.3736641605839415        0        
C1        C        0.375        0.24074099999999998        0.3736641605839415        0        
C2        C        0.40625        0.296297        0.3736641605839415        0        
C3        C        0.375        0.314815        0.3736641605839415        0        
C4        C        0.40625        0.259259        0.3736641605839415        0        
C1        C        0.375        0.351852        0.3736641605839415        0        
C2        C        0.40625        0.407408        0.3736641605839415        0        
C3        C        0.375        0.425925        0.3736641605839415        0        
C4        C        0.40625        0.37037        0.3736641605839415        0        
C1        C        0.375        0.46296300000000007        0.3736641605839415        0        
C2        C        0.40625        0.518519        0.3736641605839415        0        
C3        C        0.375        0.537037        0.3736641605839415        0        
C4        C        0.40625        0.481481        0.3736641605839415        0        
C1        C        0.375        0.574075        0.3736641605839415        0        
C2        C        0.40625        0.62963        0.3736641605839415        0        
C3        C        0.375        0.648148        0.3736641605839415        0        
C4        C        0.40625        0.592592        0.3736641605839415        0        
C1        C        0.4375        0.018519        0.3736641605839415        0        
C2        C        0.46875        0.074075        0.3736641605839415        0        
C3        C        0.4375        0.092592        0.3736641605839415        0        
C4        C        0.46875        0.037037        0.3736641605839415        0        
C1        C        0.4375        0.12963        0.3736641605839415        0        
C2        C        0.46875        0.185185        0.3736641605839415        0        
C3        C        0.4375        0.203703        0.3736641605839415        0        
C4        C        0.46875        0.148148        0.3736641605839415        0        
C1        C        0.4375        0.24074099999999998        0.3736641605839415        0        
C2        C        0.46875        0.296297        0.3736641605839415        0        
C3        C        0.4375        0.314815        0.3736641605839415        0        
C4        C        0.46875        0.259259        0.3736641605839415        0        
C1        C        0.4375        0.351852        0.3736641605839415        0        
C2        C        0.46875        0.407408        0.3736641605839415        0        
C3        C        0.4375        0.425925        0.3736641605839415        0        
C4        C        0.46875        0.37037        0.3736641605839415        0        
C1        C        0.4375        0.46296300000000007        0.3736641605839415        0        
C2        C        0.46875        0.518519        0.3736641605839415        0        
C3        C        0.4375        0.537037        0.3736641605839415        0        
C4        C        0.46875        0.481481        0.3736641605839415        0        
C1        C        0.4375        0.574075        0.3736641605839415        0        
C2        C        0.46875        0.62963        0.3736641605839415        0        
C3        C        0.4375        0.648148        0.3736641605839415        0        
C4        C        0.46875        0.592592        0.3736641605839415        0        
C1        C        0.5        0.018519        0.3736641605839415        0        
C2        C        0.53125        0.074075        0.3736641605839415        0        
C3        C        0.5        0.092592        0.3736641605839415        0        
C4        C        0.53125        0.037037        0.3736641605839415        0        
C1        C        0.5        0.12963        0.3736641605839415        0        
C2        C        0.53125        0.185185        0.3736641605839415        0        
C3        C        0.5        0.203703        0.3736641605839415        0        
C4        C        0.53125        0.148148        0.3736641605839415        0        
C1        C        0.5        0.24074099999999998        0.3736641605839415        0        
C2        C        0.53125        0.296297        0.3736641605839415        0        
C3        C        0.5        0.314815        0.3736641605839415        0        
C4        C        0.53125        0.259259        0.3736641605839415        0        
C1        C        0.5        0.351852        0.3736641605839415        0        
C2        C        0.53125        0.407408        0.3736641605839415        0        
C3        C        0.5        0.425925        0.3736641605839415        0        
C4        C        0.53125        0.37037        0.3736641605839415        0        
C1        C        0.5        0.46296300000000007        0.3736641605839415        0        
C2        C        0.53125        0.518519        0.3736641605839415        0        
C3        C        0.5        0.537037        0.3736641605839415        0        
C4        C        0.53125        0.481481        0.3736641605839415        0        
C1        C        0.5        0.574075        0.3736641605839415        0        
C2        C        0.53125        0.62963        0.3736641605839415        0        
C3        C        0.5        0.648148        0.3736641605839415        0        
C4        C        0.53125        0.592592        0.3736641605839415        0        
C1        C        0.5625        0.018519        0.3736641605839415        0        
C2        C        0.59375        0.074075        0.3736641605839415        0        
C3        C        0.5625        0.092592        0.3736641605839415        0        
C4        C        0.59375        0.037037        0.3736641605839415        0        
C1        C        0.5625        0.12963        0.3736641605839415        0        
C2        C        0.59375        0.185185        0.3736641605839415        0        
C3        C        0.5625        0.203703        0.3736641605839415        0        
C4        C        0.59375        0.148148        0.3736641605839415        0        
C1        C        0.5625        0.24074099999999998        0.3736641605839415        0        
C2        C        0.59375        0.296297        0.3736641605839415        0        
C3        C        0.5625        0.314815        0.3736641605839415        0        
C4        C        0.59375        0.259259        0.3736641605839415        0        
C1        C        0.5625        0.351852        0.3736641605839415        0        
C2        C        0.59375        0.407408        0.3736641605839415        0        
C3        C        0.5625        0.425925        0.3736641605839415        0        
C4        C        0.59375        0.37037        0.3736641605839415        0        
C1        C        0.5625        0.46296300000000007        0.3736641605839415        0        
C2        C        0.59375        0.518519        0.3736641605839415        0        
C3        C        0.5625        0.537037        0.3736641605839415        0        
C4        C        0.59375        0.481481        0.3736641605839415        0        
C1        C        0.5625        0.574075        0.3736641605839415        0        
C2        C        0.59375        0.62963        0.3736641605839415        0        
C3        C        0.5625        0.648148        0.3736641605839415        0        
C4        C        0.59375        0.592592        0.3736641605839415        0        
C1        C        0.625        0.018519        0.3736641605839415        0        
C2        C        0.65625        0.074075        0.3736641605839415        0        
C3        C        0.625        0.092592        0.3736641605839415        0        
C4        C        0.65625        0.037037        0.3736641605839415        0        
C1        C        0.625        0.12963        0.3736641605839415        0        
C2        C        0.65625        0.185185        0.3736641605839415        0        
C3        C        0.625        0.203703        0.3736641605839415        0        
C4        C        0.65625        0.148148        0.3736641605839415        0        
C1        C        0.625        0.24074099999999998        0.3736641605839415        0        
C2        C        0.65625        0.296297        0.3736641605839415        0        
C3        C        0.625        0.314815        0.3736641605839415        0        
C4        C        0.65625        0.259259        0.3736641605839415        0        
C1        C        0.625        0.351852        0.3736641605839415        0        
C2        C        0.65625        0.407408        0.3736641605839415        0        
C3        C        0.625        0.425925        0.3736641605839415        0        
C4        C        0.65625        0.37037        0.3736641605839415        0        
C1        C        0.625        0.46296300000000007        0.3736641605839415        0        
C2        C        0.65625        0.518519        0.3736641605839415        0        
C3        C        0.625        0.537037        0.3736641605839415        0        
C4        C        0.65625        0.481481        0.3736641605839415        0        
C1        C        0.625        0.574075        0.3736641605839415        0        
C2        C        0.65625        0.62963        0.3736641605839415        0        
C3        C        0.625        0.648148        0.3736641605839415        0        
C4        C        0.65625        0.592592        0.3736641605839415        0        
C1        C        0.6875        0.018519        0.3736641605839415        0        
C2        C        0.71875        0.074075        0.3736641605839415        0        
C3        C        0.6875        0.092592        0.3736641605839415        0        
C4        C        0.71875        0.037037        0.3736641605839415        0        
C1        C        0.6875        0.12963        0.3736641605839415        0        
C2        C        0.71875        0.185185        0.3736641605839415        0        
C3        C        0.6875        0.203703        0.3736641605839415        0        
C4        C        0.71875        0.148148        0.3736641605839415        0        
C1        C        0.6875        0.24074099999999998        0.3736641605839415        0        
C2        C        0.71875        0.296297        0.3736641605839415        0        
C3        C        0.6875        0.314815        0.3736641605839415        0        
C4        C        0.71875        0.259259        0.3736641605839415        0        
C1        C        0.6875        0.351852        0.3736641605839415        0        
C2        C        0.71875        0.407408        0.3736641605839415        0        
C3        C        0.6875        0.425925        0.3736641605839415        0        
C4        C        0.71875        0.37037        0.3736641605839415        0        
C1        C        0.6875        0.46296300000000007        0.3736641605839415        0        
C2        C        0.71875        0.518519        0.3736641605839415        0        
C3        C        0.6875        0.537037        0.3736641605839415        0        
C4        C        0.71875        0.481481        0.3736641605839415        0        
C1        C        0.6875        0.574075        0.3736641605839415        0        
C2        C        0.71875        0.62963        0.3736641605839415        0        
C3        C        0.6875        0.648148        0.3736641605839415        0        
C4        C        0.71875        0.592592        0.3736641605839415        0        
C1        C        0.75        0.018519        0.3736641605839415        0        
C2        C        0.78125        0.074075        0.3736641605839415        0        
C3        C        0.75        0.092592        0.3736641605839415        0        
C4        C        0.78125        0.037037        0.3736641605839415        0        
C1        C        0.75        0.12963        0.3736641605839415        0        
C2        C        0.78125        0.185185        0.3736641605839415        0        
C3        C        0.75        0.203703        0.3736641605839415        0        
C4        C        0.78125        0.148148        0.3736641605839415        0        
C1        C        0.75        0.24074099999999998        0.3736641605839415        0        
C2        C        0.78125        0.296297        0.3736641605839415        0        
C3        C        0.75        0.314815        0.3736641605839415        0        
C4        C        0.78125        0.259259        0.3736641605839415        0        
C1        C        0.75        0.351852        0.3736641605839415        0        
C2        C        0.78125        0.407408        0.3736641605839415        0        
C3        C        0.75        0.425925        0.3736641605839415        0        
C4        C        0.78125        0.37037        0.3736641605839415        0        
C1        C        0.75        0.46296300000000007        0.3736641605839415        0        
C2        C        0.78125        0.518519        0.3736641605839415        0        
C3        C        0.75        0.537037        0.3736641605839415        0        
C4        C        0.78125        0.481481        0.3736641605839415        0        
C1        C        0.75        0.574075        0.3736641605839415        0        
C2        C        0.78125        0.62963        0.3736641605839415        0        
C3        C        0.75        0.648148        0.3736641605839415        0        
C4        C        0.78125        0.592592        0.3736641605839415        0        
C1        C        0.8125        0.018519        0.3736641605839415        0        
C2        C        0.84375        0.074075        0.3736641605839415        0        
C3        C        0.8125        0.092592        0.3736641605839415        0        
C4        C        0.84375        0.037037        0.3736641605839415        0        
C1        C        0.8125        0.12963        0.3736641605839415        0        
C2        C        0.84375        0.185185        0.3736641605839415        0        
C3        C        0.8125        0.203703        0.3736641605839415        0        
C4        C        0.84375        0.148148        0.3736641605839415        0        
C1        C        0.8125        0.24074099999999998        0.3736641605839415        0        
C2        C        0.84375        0.296297        0.3736641605839415        0        
C3        C        0.8125        0.314815        0.3736641605839415        0        
C4        C        0.84375        0.259259        0.3736641605839415        0        
C1        C        0.8125        0.351852        0.3736641605839415        0        
C2        C        0.84375        0.407408        0.3736641605839415        0        
C3        C        0.8125        0.425925        0.3736641605839415        0        
C4        C        0.84375        0.37037        0.3736641605839415        0        
C1        C        0.8125        0.46296300000000007        0.3736641605839415        0        
C2        C        0.84375        0.518519        0.3736641605839415        0        
C3        C        0.8125        0.537037        0.3736641605839415        0        
C4        C        0.84375        0.481481        0.3736641605839415        0        
C1        C        0.8125        0.574075        0.3736641605839415        0        
C2        C        0.84375        0.62963        0.3736641605839415        0        
C3        C        0.8125        0.648148        0.3736641605839415        0        
C4        C        0.84375        0.592592        0.3736641605839415        0        
C1        C        0.875        0.018519        0.3736641605839415        0        
C2        C        0.9062500000000001        0.074075        0.3736641605839415        0        
C3        C        0.875        0.092592        0.3736641605839415        0        
C4        C        0.9062500000000001        0.037037        0.3736641605839415        0        
C1        C        0.875        0.12963        0.3736641605839415        0        
C2        C        0.9062500000000001        0.185185        0.3736641605839415        0        
C3        C        0.875        0.203703        0.3736641605839415        0        
C4        C        0.9062500000000001        0.148148        0.3736641605839415        0        
C1        C        0.875        0.24074099999999998        0.3736641605839415        0        
C2        C        0.9062500000000001        0.296297        0.3736641605839415        0        
C3        C        0.875        0.314815        0.3736641605839415        0        
C4        C        0.9062500000000001        0.259259        0.3736641605839415        0        
C1        C        0.875        0.351852        0.3736641605839415        0        
C2        C        0.9062500000000001        0.407408        0.3736641605839415        0        
C3        C        0.875        0.425925        0.3736641605839415        0        
C4        C        0.9062500000000001        0.37037        0.3736641605839415        0        
C1        C        0.875        0.46296300000000007        0.3736641605839415        0        
C2        C        0.9062500000000001        0.518519        0.3736641605839415        0        
C3        C        0.875        0.537037        0.3736641605839415        0        
C4        C        0.9062500000000001        0.481481        0.3736641605839415        0        
C1        C        0.875        0.574075        0.3736641605839415        0        
C2        C        0.9062500000000001        0.62963        0.3736641605839415        0        
C3        C        0.875        0.648148        0.3736641605839415        0        
C4        C        0.9062500000000001        0.592592        0.3736641605839415        0        
C1        C        0.9375        0.018519        0.3736641605839415        0        
C2        C        0.9687500000000001        0.074075        0.3736641605839415        0        
C3        C        0.9375        0.092592        0.3736641605839415        0        
C4        C        0.9687500000000001        0.037037        0.3736641605839415        0        
C1        C        0.9375        0.12963        0.3736641605839415        0        
C2        C        0.9687500000000001        0.185185        0.3736641605839415        0        
C3        C        0.9375        0.203703        0.3736641605839415        0        
C4        C        0.9687500000000001        0.148148        0.3736641605839415        0        
C1        C        0.9375        0.24074099999999998        0.3736641605839415        0        
C2        C        0.9687500000000001        0.296297        0.3736641605839415        0        
C3        C        0.9375        0.314815        0.3736641605839415        0        
C4        C        0.9687500000000001        0.259259        0.3736641605839415        0        
C1        C        0.9375        0.351852        0.3736641605839415        0        
C2        C        0.9687500000000001        0.407408        0.3736641605839415        0        
C3        C        0.9375        0.425925        0.3736641605839415        0        
C4        C        0.9687500000000001        0.37037        0.3736641605839415        0        
C1        C        0.9375        0.46296300000000007        0.3736641605839415        0        
C2        C        0.9687500000000001        0.518519        0.3736641605839415        0        
C3        C        0.9375        0.537037        0.3736641605839415        0        
C4        C        0.9687500000000001        0.481481        0.3736641605839415        0        
C1        C        0.9375        0.574075        0.3736641605839415        0        
C2        C        0.9687500000000001        0.62963        0.3736641605839415        0        
C3        C        0.9375        0.648148        0.3736641605839415        0        
C4        C        0.9687500000000001        0.592592        0.3736641605839415        0        
C1        C        0.0        0.685186        0.3736641605839415        0        
C1        C        0.0625        0.685186        0.3736641605839415        0        
C1        C        0.125        0.685186        0.3736641605839415        0        
C1        C        0.1875        0.685186        0.3736641605839415        0        
C1        C        0.25        0.685186        0.3736641605839415        0        
C1        C        0.3125        0.685186        0.3736641605839415        0        
C1        C        0.375        0.685186        0.3736641605839415        0        
C1        C        0.4375        0.685186        0.3736641605839415        0        
C1        C        0.5        0.685186        0.3736641605839415        0        
C1        C        0.5625        0.685186        0.3736641605839415        0        
C1        C        0.625        0.685186        0.3736641605839415        0        
C1        C        0.6875        0.685186        0.3736641605839415        0        
C1        C        0.75        0.685186        0.3736641605839415        0        
C1        C        0.8125        0.685186        0.3736641605839415        0        
C1        C        0.875        0.685186        0.3736641605839415        0        
C1        C        0.9375        0.685186        0.3736641605839415        0        
C2        C        0.03125        0.740741        0.3736641605839415        0        
C2        C        0.09375        0.740741        0.3736641605839415        0        
C2        C        0.15625        0.740741        0.3736641605839415        0        
C2        C        0.21875        0.740741        0.3736641605839415        0        
C2        C        0.28125        0.740741        0.3736641605839415        0        
C2        C        0.34375        0.740741        0.3736641605839415        0        
C2        C        0.40625        0.740741        0.3736641605839415        0        
C2        C        0.46875        0.740741        0.3736641605839415        0        
C2        C        0.53125        0.740741        0.3736641605839415        0        
C2        C        0.59375        0.740741        0.3736641605839415        0        
C2        C        0.65625        0.740741        0.3736641605839415        0        
C2        C        0.71875        0.740741        0.3736641605839415        0        
C2        C        0.78125        0.740741        0.3736641605839415        0        
C2        C        0.84375        0.740741        0.3736641605839415        0        
C2        C        0.9062500000000001        0.740741        0.3736641605839415        0        
C2        C        0.9687500000000001        0.740741        0.3736641605839415        0        
C3        C        0.0        0.759259        0.3736641605839415        0        
C3        C        0.0625        0.759259        0.3736641605839415        0        
C3        C        0.125        0.759259        0.3736641605839415        0        
C3        C        0.1875        0.759259        0.3736641605839415        0        
C3        C        0.25        0.759259        0.3736641605839415        0        
C3        C        0.3125        0.759259        0.3736641605839415        0        
C3        C        0.375        0.759259        0.3736641605839415        0        
C3        C        0.4375        0.759259        0.3736641605839415        0        
C3        C        0.5        0.759259        0.3736641605839415        0        
C3        C        0.5625        0.759259        0.3736641605839415        0        
C3        C        0.625        0.759259        0.3736641605839415        0        
C3        C        0.6875        0.759259        0.3736641605839415        0        
C3        C        0.75        0.759259        0.3736641605839415        0        
C3        C        0.8125        0.759259        0.3736641605839415        0        
C3        C        0.875        0.759259        0.3736641605839415        0        
C3        C        0.9375        0.759259        0.3736641605839415        0        
C4        C        0.03125        0.703703        0.3736641605839415        0        
C4        C        0.09375        0.703703        0.3736641605839415        0        
C4        C        0.15625        0.703703        0.3736641605839415        0        
C4        C        0.21875        0.703703        0.3736641605839415        0        
C4        C        0.28125        0.703703        0.3736641605839415        0        
C4        C        0.34375        0.703703        0.3736641605839415        0        
C4        C        0.40625        0.703703        0.3736641605839415        0        
C4        C        0.46875        0.703703        0.3736641605839415        0        
C4        C        0.53125        0.703703        0.3736641605839415        0        
C4        C        0.59375        0.703703        0.3736641605839415        0        
C4        C        0.65625        0.703703        0.3736641605839415        0        
C4        C        0.71875        0.703703        0.3736641605839415        0        
C4        C        0.78125        0.703703        0.3736641605839415        0        
C4        C        0.84375        0.703703        0.3736641605839415        0        
C4        C        0.9062500000000001        0.703703        0.3736641605839415        0        
C4        C        0.9687500000000001        0.703703        0.3736641605839415        0        
C1        C        0.0        0.796297        0.3736641605839415        0        
C1        C        0.0625        0.796297        0.3736641605839415        0        
C1        C        0.125        0.796297        0.3736641605839415        0        
C1        C        0.1875        0.796297        0.3736641605839415        0        
C1        C        0.25        0.796297        0.3736641605839415        0        
C1        C        0.3125        0.796297        0.3736641605839415        0        
C1        C        0.375        0.796297        0.3736641605839415        0        
C1        C        0.4375        0.796297        0.3736641605839415        0        
C1        C        0.5        0.796297        0.3736641605839415        0        
C1        C        0.5625        0.796297        0.3736641605839415        0        
C1        C        0.625        0.796297        0.3736641605839415        0        
C1        C        0.6875        0.796297        0.3736641605839415        0        
C1        C        0.75        0.796297        0.3736641605839415        0        
C1        C        0.8125        0.796297        0.3736641605839415        0        
C1        C        0.875        0.796297        0.3736641605839415        0        
C1        C        0.9375        0.796297        0.3736641605839415        0        
C2        C        0.03125        0.851852        0.3736641605839415        0        
C2        C        0.09375        0.851852        0.3736641605839415        0        
C2        C        0.15625        0.851852        0.3736641605839415        0        
C2        C        0.21875        0.851852        0.3736641605839415        0        
C2        C        0.28125        0.851852        0.3736641605839415        0        
C2        C        0.34375        0.851852        0.3736641605839415        0        
C2        C        0.40625        0.851852        0.3736641605839415        0        
C2        C        0.46875        0.851852        0.3736641605839415        0        
C2        C        0.53125        0.851852        0.3736641605839415        0        
C2        C        0.59375        0.851852        0.3736641605839415        0        
C2        C        0.65625        0.851852        0.3736641605839415        0        
C2        C        0.71875        0.851852        0.3736641605839415        0        
C2        C        0.78125        0.851852        0.3736641605839415        0        
C2        C        0.84375        0.851852        0.3736641605839415        0        
C2        C        0.9062500000000001        0.851852        0.3736641605839415        0        
C2        C        0.9687500000000001        0.851852        0.3736641605839415        0        
C3        C        0.0        0.87037        0.3736641605839415        0        
C3        C        0.0625        0.87037        0.3736641605839415        0        
C3        C        0.125        0.87037        0.3736641605839415        0        
C3        C        0.1875        0.87037        0.3736641605839415        0        
C3        C        0.25        0.87037        0.3736641605839415        0        
C3        C        0.3125        0.87037        0.3736641605839415        0        
C3        C        0.375        0.87037        0.3736641605839415        0        
C3        C        0.4375        0.87037        0.3736641605839415        0        
C3        C        0.5        0.87037        0.3736641605839415        0        
C3        C        0.5625        0.87037        0.3736641605839415        0        
C3        C        0.625        0.87037        0.3736641605839415        0        
C3        C        0.6875        0.87037        0.3736641605839415        0        
C3        C        0.75        0.87037        0.3736641605839415        0        
C3        C        0.8125        0.87037        0.3736641605839415        0        
C3        C        0.875        0.87037        0.3736641605839415        0        
C3        C        0.9375        0.87037        0.3736641605839415        0        
C4        C        0.03125        0.814814        0.3736641605839415        0        
C4        C        0.09375        0.814814        0.3736641605839415        0        
C4        C        0.15625        0.814814        0.3736641605839415        0        
C4        C        0.21875        0.814814        0.3736641605839415        0        
C4        C        0.28125        0.814814        0.3736641605839415        0        
C4        C        0.34375        0.814814        0.3736641605839415        0        
C4        C        0.40625        0.814814        0.3736641605839415        0        
C4        C        0.46875        0.814814        0.3736641605839415        0        
C4        C        0.53125        0.814814        0.3736641605839415        0        
C4        C        0.59375        0.814814        0.3736641605839415        0        
C4        C        0.65625        0.814814        0.3736641605839415        0        
C4        C        0.71875        0.814814        0.3736641605839415        0        
C4        C        0.78125        0.814814        0.3736641605839415        0        
C4        C        0.84375        0.814814        0.3736641605839415        0        
C4        C        0.9062500000000001        0.814814        0.3736641605839415        0        
C4        C        0.9687500000000001        0.814814        0.3736641605839415        0        
C1        C        0.0        0.907408        0.3736641605839415        0        
C1        C        0.0625        0.907408        0.3736641605839415        0        
C1        C        0.125        0.907408        0.3736641605839415        0        
C1        C        0.1875        0.907408        0.3736641605839415        0        
C1        C        0.25        0.907408        0.3736641605839415        0        
C1        C        0.3125        0.907408        0.3736641605839415        0        
C1        C        0.375        0.907408        0.3736641605839415        0        
C1        C        0.4375        0.907408        0.3736641605839415        0        
C1        C        0.5        0.907408        0.3736641605839415        0        
C1        C        0.5625        0.907408        0.3736641605839415        0        
C1        C        0.625        0.907408        0.3736641605839415        0        
C1        C        0.6875        0.907408        0.3736641605839415        0        
C1        C        0.75        0.907408        0.3736641605839415        0        
C1        C        0.8125        0.907408        0.3736641605839415        0        
C1        C        0.875        0.907408        0.3736641605839415        0        
C1        C        0.9375        0.907408        0.3736641605839415        0        
C2        C        0.03125        0.962963        0.3736641605839415        0        
C2        C        0.09375        0.962963        0.3736641605839415        0        
C2        C        0.15625        0.962963        0.3736641605839415        0        
C2        C        0.21875        0.962963        0.3736641605839415        0        
C2        C        0.28125        0.962963        0.3736641605839415        0        
C2        C        0.34375        0.962963        0.3736641605839415        0        
C2        C        0.40625        0.962963        0.3736641605839415        0        
C2        C        0.46875        0.962963        0.3736641605839415        0        
C2        C        0.53125        0.962963        0.3736641605839415        0        
C2        C        0.59375        0.962963        0.3736641605839415        0        
C2        C        0.65625        0.962963        0.3736641605839415        0        
C2        C        0.71875        0.962963        0.3736641605839415        0        
C2        C        0.78125        0.962963        0.3736641605839415        0        
C2        C        0.84375        0.962963        0.3736641605839415        0        
C2        C        0.9062500000000001        0.962963        0.3736641605839415        0        
C2        C        0.9687500000000001        0.962963        0.3736641605839415        0        
C3        C        0.0        0.9814809999999999        0.3736641605839415        0        
C3        C        0.0625        0.9814809999999999        0.3736641605839415        0        
C3        C        0.125        0.9814809999999999        0.3736641605839415        0        
C3        C        0.1875        0.9814809999999999        0.3736641605839415        0        
C3        C        0.25        0.9814809999999999        0.3736641605839415        0        
C3        C        0.3125        0.9814809999999999        0.3736641605839415        0        
C3        C        0.375        0.9814809999999999        0.3736641605839415        0        
C3        C        0.4375        0.9814809999999999        0.3736641605839415        0        
C3        C        0.5        0.9814809999999999        0.3736641605839415        0        
C3        C        0.5625        0.9814809999999999        0.3736641605839415        0        
C3        C        0.625        0.9814809999999999        0.3736641605839415        0        
C3        C        0.6875        0.9814809999999999        0.3736641605839415        0        
C3        C        0.75        0.9814809999999999        0.3736641605839415        0        
C3        C        0.8125        0.9814809999999999        0.3736641605839415        0        
C3        C        0.875        0.9814809999999999        0.3736641605839415        0        
C3        C        0.9375        0.9814809999999999        0.3736641605839415        0        
C4        C        0.03125        0.925925        0.3736641605839415        0        
C4        C        0.09375        0.925925        0.3736641605839415        0        
C4        C        0.15625        0.925925        0.3736641605839415        0        
C4        C        0.21875        0.925925        0.3736641605839415        0        
C4        C        0.28125        0.925925        0.3736641605839415        0        
C4        C        0.34375        0.925925        0.3736641605839415        0        
C4        C        0.40625        0.925925        0.3736641605839415        0        
C4        C        0.46875        0.925925        0.3736641605839415        0        
C4        C        0.53125        0.925925        0.3736641605839415        0        
C4        C        0.59375        0.925925        0.3736641605839415        0        
C4        C        0.65625        0.925925        0.3736641605839415        0        
C4        C        0.71875        0.925925        0.3736641605839415        0        
C4        C        0.78125        0.925925        0.3736641605839415        0        
C4        C        0.84375        0.925925        0.3736641605839415        0        
C4        C        0.9062500000000001        0.925925        0.3736641605839415        0        
C4        C        0.9687500000000001        0.925925        0.3736641605839415        0        
C_FG        C        0.0        0.018519        0.618189708029197        0.2        
C2        C        0.03125        0.074075        0.618189708029197        0        
C3        C        0.0        0.092592        0.618189708029197        0        
C4        C        0.03125        0.037037        0.618189708029197        0        
C1        C        0.0        0.12963        0.618189708029197        0        
C2        C        0.03125        0.185185        0.618189708029197        0        
C3        C        0.0        0.203703        0.618189708029197        0        
C4        C        0.03125        0.148148        0.618189708029197        0        
C_FG        C        0.0        0.24074099999999998        0.618189708029197        0.2        
C2        C        0.03125        0.296297        0.618189708029197        0        
C3        C        0.0        0.314815        0.618189708029197        0        
C4        C        0.03125        0.259259        0.618189708029197        0        
C1        C        0.0        0.351852        0.618189708029197        0        
C2        C        0.03125        0.407408        0.618189708029197        0        
C3        C        0.0        0.425925        0.618189708029197        0        
C4        C        0.03125        0.37037        0.618189708029197        0        
C_FG        C        0.0        0.46296300000000007        0.618189708029197        0.2        
C2        C        0.03125        0.518519        0.618189708029197        0        
C3        C        0.0        0.537037        0.618189708029197        0        
C4        C        0.03125        0.481481        0.618189708029197        0        
C1        C        0.0        0.574075        0.618189708029197        0        
C2        C        0.03125        0.62963        0.618189708029197        0        
C3        C        0.0        0.648148        0.618189708029197        0        
C4        C        0.03125        0.592592        0.618189708029197        0        
C1        C        0.0625        0.018519        0.618189708029197        0        
C2        C        0.09375        0.074075        0.618189708029197        0        
C3        C        0.0625        0.092592        0.618189708029197        0        
C4        C        0.09375        0.037037        0.618189708029197        0        
C1        C        0.0625        0.12963        0.618189708029197        0        
C2        C        0.09375        0.185185        0.618189708029197        0        
C3        C        0.0625        0.203703        0.618189708029197        0        
C4        C        0.09375        0.148148        0.618189708029197        0        
C1        C        0.0625        0.24074099999999998        0.618189708029197        0        
C2        C        0.09375        0.296297        0.618189708029197        0        
C3        C        0.0625        0.314815        0.618189708029197        0        
C4        C        0.09375        0.259259        0.618189708029197        0        
C1        C        0.0625        0.351852        0.618189708029197        0        
C2        C        0.09375        0.407408        0.618189708029197        0        
C3        C        0.0625        0.425925        0.618189708029197        0        
C4        C        0.09375        0.37037        0.618189708029197        0        
C1        C        0.0625        0.46296300000000007        0.618189708029197        0        
C2        C        0.09375        0.518519        0.618189708029197        0        
C3        C        0.0625        0.537037        0.618189708029197        0        
C4        C        0.09375        0.481481        0.618189708029197        0        
C1        C        0.0625        0.574075        0.618189708029197        0        
C2        C        0.09375        0.62963        0.618189708029197        0        
C3        C        0.0625        0.648148        0.618189708029197        0        
C4        C        0.09375        0.592592        0.618189708029197        0        
C1        C        0.125        0.018519        0.618189708029197        0        
C2        C        0.15625        0.074075        0.618189708029197        0        
C3        C        0.125        0.092592        0.618189708029197        0        
C4        C        0.15625        0.037037        0.618189708029197        0        
C1        C        0.125        0.12963        0.618189708029197        0        
C2        C        0.15625        0.185185        0.618189708029197        0        
C3        C        0.125        0.203703        0.618189708029197        0        
C4        C        0.15625        0.148148        0.618189708029197        0        
C1        C        0.125        0.24074099999999998        0.618189708029197        0        
C2        C        0.15625        0.296297        0.618189708029197        0        
C3        C        0.125        0.314815        0.618189708029197        0        
C4        C        0.15625        0.259259        0.618189708029197        0        
C1        C        0.125        0.351852        0.618189708029197        0        
C2        C        0.15625        0.407408        0.618189708029197        0        
C3        C        0.125        0.425925        0.618189708029197        0        
C4        C        0.15625        0.37037        0.618189708029197        0        
C1        C        0.125        0.46296300000000007        0.618189708029197        0        
C2        C        0.15625        0.518519        0.618189708029197        0        
C3        C        0.125        0.537037        0.618189708029197        0        
C4        C        0.15625        0.481481        0.618189708029197        0        
C1        C        0.125        0.574075        0.618189708029197        0        
C2        C        0.15625        0.62963        0.618189708029197        0        
C3        C        0.125        0.648148        0.618189708029197        0        
C4        C        0.15625        0.592592        0.618189708029197        0        
C_FG        C        0.1875        0.018519        0.618189708029197        0.2        
C2        C        0.21875        0.074075        0.618189708029197        0        
C3        C        0.1875        0.092592        0.618189708029197        0        
C4        C        0.21875        0.037037        0.618189708029197        0        
C1        C        0.1875        0.12963        0.618189708029197        0        
C2        C        0.21875        0.185185        0.618189708029197        0        
C3        C        0.1875        0.203703        0.618189708029197        0        
C4        C        0.21875        0.148148        0.618189708029197        0        
C_FG        C        0.1875        0.24074099999999998        0.618189708029197        0.2        
C2        C        0.21875        0.296297        0.618189708029197        0        
C3        C        0.1875        0.314815        0.618189708029197        0        
C4        C        0.21875        0.259259        0.618189708029197        0        
C1        C        0.1875        0.351852        0.618189708029197        0        
C2        C        0.21875        0.407408        0.618189708029197        0        
C3        C        0.1875        0.425925        0.618189708029197        0        
C4        C        0.21875        0.37037        0.618189708029197        0        
C_FG        C        0.1875        0.46296300000000007        0.618189708029197        0.2        
C2        C        0.21875        0.518519        0.618189708029197        0        
C3        C        0.1875        0.537037        0.618189708029197        0        
C4        C        0.21875        0.481481        0.618189708029197        0        
C1        C        0.1875        0.574075        0.618189708029197        0        
C2        C        0.21875        0.62963        0.618189708029197        0        
C3        C        0.1875        0.648148        0.618189708029197        0        
C4        C        0.21875        0.592592        0.618189708029197        0        
C1        C        0.25        0.018519        0.618189708029197        0        
C2        C        0.28125        0.074075        0.618189708029197        0        
C3        C        0.25        0.092592        0.618189708029197        0        
C4        C        0.28125        0.037037        0.618189708029197        0        
C1        C        0.25        0.12963        0.618189708029197        0        
C2        C        0.28125        0.185185        0.618189708029197        0        
C3        C        0.25        0.203703        0.618189708029197        0        
C4        C        0.28125        0.148148        0.618189708029197        0        
C1        C        0.25        0.24074099999999998        0.618189708029197        0        
C2        C        0.28125        0.296297        0.618189708029197        0        
C3        C        0.25        0.314815        0.618189708029197        0        
C4        C        0.28125        0.259259        0.618189708029197        0        
C1        C        0.25        0.351852        0.618189708029197        0        
C2        C        0.28125        0.407408        0.618189708029197        0        
C3        C        0.25        0.425925        0.618189708029197        0        
C4        C        0.28125        0.37037        0.618189708029197        0        
C1        C        0.25        0.46296300000000007        0.618189708029197        0        
C2        C        0.28125        0.518519        0.618189708029197        0        
C3        C        0.25        0.537037        0.618189708029197        0        
C4        C        0.28125        0.481481        0.618189708029197        0        
C1        C        0.25        0.574075        0.618189708029197        0        
C2        C        0.28125        0.62963        0.618189708029197        0        
C3        C        0.25        0.648148        0.618189708029197        0        
C4        C        0.28125        0.592592        0.618189708029197        0        
C1        C        0.3125        0.018519        0.618189708029197        0        
C2        C        0.34375        0.074075        0.618189708029197        0        
C3        C        0.3125        0.092592        0.618189708029197        0        
C4        C        0.34375        0.037037        0.618189708029197        0        
C1        C        0.3125        0.12963        0.618189708029197        0        
C2        C        0.34375        0.185185        0.618189708029197        0        
C3        C        0.3125        0.203703        0.618189708029197        0        
C4        C        0.34375        0.148148        0.618189708029197        0        
C1        C        0.3125        0.24074099999999998        0.618189708029197        0        
C2        C        0.34375        0.296297        0.618189708029197        0        
C3        C        0.3125        0.314815        0.618189708029197        0        
C4        C        0.34375        0.259259        0.618189708029197        0        
C1        C        0.3125        0.351852        0.618189708029197        0        
C2        C        0.34375        0.407408        0.618189708029197        0        
C3        C        0.3125        0.425925        0.618189708029197        0        
C4        C        0.34375        0.37037        0.618189708029197        0        
C1        C        0.3125        0.46296300000000007        0.618189708029197        0        
C2        C        0.34375        0.518519        0.618189708029197        0        
C3        C        0.3125        0.537037        0.618189708029197        0        
C4        C        0.34375        0.481481        0.618189708029197        0        
C1        C        0.3125        0.574075        0.618189708029197        0        
C2        C        0.34375        0.62963        0.618189708029197        0        
C3        C        0.3125        0.648148        0.618189708029197        0        
C4        C        0.34375        0.592592        0.618189708029197        0        
C_FG        C        0.375        0.018519        0.618189708029197        0.2        
C2        C        0.40625        0.074075        0.618189708029197        0        
C3        C        0.375        0.092592        0.618189708029197        0        
C4        C        0.40625        0.037037        0.618189708029197        0        
C1        C        0.375        0.12963        0.618189708029197        0        
C2        C        0.40625        0.185185        0.618189708029197        0        
C3        C        0.375        0.203703        0.618189708029197        0        
C4        C        0.40625        0.148148        0.618189708029197        0        
C_FG        C        0.375        0.24074099999999998        0.618189708029197        0.2        
C2        C        0.40625        0.296297        0.618189708029197        0        
C3        C        0.375        0.314815        0.618189708029197        0        
C4        C        0.40625        0.259259        0.618189708029197        0        
C1        C        0.375        0.351852        0.618189708029197        0        
C2        C        0.40625        0.407408        0.618189708029197        0        
C3        C        0.375        0.425925        0.618189708029197        0        
C4        C        0.40625        0.37037        0.618189708029197        0        
C_FG        C        0.375        0.46296300000000007        0.618189708029197        0.2        
C2        C        0.40625        0.518519        0.618189708029197        0        
C3        C        0.375        0.537037        0.618189708029197        0        
C4        C        0.40625        0.481481        0.618189708029197        0        
C1        C        0.375        0.574075        0.618189708029197        0        
C2        C        0.40625        0.62963        0.618189708029197        0        
C3        C        0.375        0.648148        0.618189708029197        0        
C4        C        0.40625        0.592592        0.618189708029197        0        
C1        C        0.4375        0.018519        0.618189708029197        0        
C2        C        0.46875        0.074075        0.618189708029197        0        
C3        C        0.4375        0.092592        0.618189708029197        0        
C4        C        0.46875        0.037037        0.618189708029197        0        
C1        C        0.4375        0.12963        0.618189708029197        0        
C2        C        0.46875        0.185185        0.618189708029197        0        
C3        C        0.4375        0.203703        0.618189708029197        0        
C4        C        0.46875        0.148148        0.618189708029197        0        
C1        C        0.4375        0.24074099999999998        0.618189708029197        0        
C2        C        0.46875        0.296297        0.618189708029197        0        
C3        C        0.4375        0.314815        0.618189708029197        0        
C4        C        0.46875        0.259259        0.618189708029197        0        
C1        C        0.4375        0.351852        0.618189708029197        0        
C2        C        0.46875        0.407408        0.618189708029197        0        
C3        C        0.4375        0.425925        0.618189708029197        0        
C4        C        0.46875        0.37037        0.618189708029197        0        
C1        C        0.4375        0.46296300000000007        0.618189708029197        0        
C2        C        0.46875        0.518519        0.618189708029197        0        
C3        C        0.4375        0.537037        0.618189708029197        0        
C4        C        0.46875        0.481481        0.618189708029197        0        
C1        C        0.4375        0.574075        0.618189708029197        0        
C2        C        0.46875        0.62963        0.618189708029197        0        
C3        C        0.4375        0.648148        0.618189708029197        0        
C4        C        0.46875        0.592592        0.618189708029197        0        
C1        C        0.5        0.018519        0.618189708029197        0        
C2        C        0.53125        0.074075        0.618189708029197        0        
C3        C        0.5        0.092592        0.618189708029197        0        
C4        C        0.53125        0.037037        0.618189708029197        0        
C1        C        0.5        0.12963        0.618189708029197        0        
C2        C        0.53125        0.185185        0.618189708029197        0        
C3        C        0.5        0.203703        0.618189708029197        0        
C4        C        0.53125        0.148148        0.618189708029197        0        
C1        C        0.5        0.24074099999999998        0.618189708029197        0        
C2        C        0.53125        0.296297        0.618189708029197        0        
C3        C        0.5        0.314815        0.618189708029197        0        
C4        C        0.53125        0.259259        0.618189708029197        0        
C1        C        0.5        0.351852        0.618189708029197        0        
C2        C        0.53125        0.407408        0.618189708029197        0        
C3        C        0.5        0.425925        0.618189708029197        0        
C4        C        0.53125        0.37037        0.618189708029197        0        
C1        C        0.5        0.46296300000000007        0.618189708029197        0        
C2        C        0.53125        0.518519        0.618189708029197        0        
C3        C        0.5        0.537037        0.618189708029197        0        
C4        C        0.53125        0.481481        0.618189708029197        0        
C1        C        0.5        0.574075        0.618189708029197        0        
C2        C        0.53125        0.62963        0.618189708029197        0        
C3        C        0.5        0.648148        0.618189708029197        0        
C4        C        0.53125        0.592592        0.618189708029197        0        
C_FG        C        0.5625        0.018519        0.618189708029197        0.2        
C2        C        0.59375        0.074075        0.618189708029197        0        
C3        C        0.5625        0.092592        0.618189708029197        0        
C4        C        0.59375        0.037037        0.618189708029197        0        
C1        C        0.5625        0.12963        0.618189708029197        0        
C2        C        0.59375        0.185185        0.618189708029197        0        
C3        C        0.5625        0.203703        0.618189708029197        0        
C4        C        0.59375        0.148148        0.618189708029197        0        
C_FG        C        0.5625        0.24074099999999998        0.618189708029197        0.2        
C2        C        0.59375        0.296297        0.618189708029197        0        
C3        C        0.5625        0.314815        0.618189708029197        0        
C4        C        0.59375        0.259259        0.618189708029197        0        
C1        C        0.5625        0.351852        0.618189708029197        0        
C2        C        0.59375        0.407408        0.618189708029197        0        
C3        C        0.5625        0.425925        0.618189708029197        0        
C4        C        0.59375        0.37037        0.618189708029197        0        
C_FG        C        0.5625        0.46296300000000007        0.618189708029197        0.2        
C2        C        0.59375        0.518519        0.618189708029197        0        
C3        C        0.5625        0.537037        0.618189708029197        0        
C4        C        0.59375        0.481481        0.618189708029197        0        
C1        C        0.5625        0.574075        0.618189708029197        0        
C2        C        0.59375        0.62963        0.618189708029197        0        
C3        C        0.5625        0.648148        0.618189708029197        0        
C4        C        0.59375        0.592592        0.618189708029197        0        
C1        C        0.625        0.018519        0.618189708029197        0        
C2        C        0.65625        0.074075        0.618189708029197        0        
C3        C        0.625        0.092592        0.618189708029197        0        
C4        C        0.65625        0.037037        0.618189708029197        0        
C1        C        0.625        0.12963        0.618189708029197        0        
C2        C        0.65625        0.185185        0.618189708029197        0        
C3        C        0.625        0.203703        0.618189708029197        0        
C4        C        0.65625        0.148148        0.618189708029197        0        
C1        C        0.625        0.24074099999999998        0.618189708029197        0        
C2        C        0.65625        0.296297        0.618189708029197        0        
C3        C        0.625        0.314815        0.618189708029197        0        
C4        C        0.65625        0.259259        0.618189708029197        0        
C1        C        0.625        0.351852        0.618189708029197        0        
C2        C        0.65625        0.407408        0.618189708029197        0        
C3        C        0.625        0.425925        0.618189708029197        0        
C4        C        0.65625        0.37037        0.618189708029197        0        
C1        C        0.625        0.46296300000000007        0.618189708029197        0        
C2        C        0.65625        0.518519        0.618189708029197        0        
C3        C        0.625        0.537037        0.618189708029197        0        
C4        C        0.65625        0.481481        0.618189708029197        0        
C1        C        0.625        0.574075        0.618189708029197        0        
C2        C        0.65625        0.62963        0.618189708029197        0        
C3        C        0.625        0.648148        0.618189708029197        0        
C4        C        0.65625        0.592592        0.618189708029197        0        
C1        C        0.6875        0.018519        0.618189708029197        0        
C2        C        0.71875        0.074075        0.618189708029197        0        
C3        C        0.6875        0.092592        0.618189708029197        0        
C4        C        0.71875        0.037037        0.618189708029197        0        
C1        C        0.6875        0.12963        0.618189708029197        0        
C2        C        0.71875        0.185185        0.618189708029197        0        
C3        C        0.6875        0.203703        0.618189708029197        0        
C4        C        0.71875        0.148148        0.618189708029197        0        
C1        C        0.6875        0.24074099999999998        0.618189708029197        0        
C2        C        0.71875        0.296297        0.618189708029197        0        
C3        C        0.6875        0.314815        0.618189708029197        0        
C4        C        0.71875        0.259259        0.618189708029197        0        
C1        C        0.6875        0.351852        0.618189708029197        0        
C2        C        0.71875        0.407408        0.618189708029197        0        
C3        C        0.6875        0.425925        0.618189708029197        0        
C4        C        0.71875        0.37037        0.618189708029197        0        
C1        C        0.6875        0.46296300000000007        0.618189708029197        0        
C2        C        0.71875        0.518519        0.618189708029197        0        
C3        C        0.6875        0.537037        0.618189708029197        0        
C4        C        0.71875        0.481481        0.618189708029197        0        
C1        C        0.6875        0.574075        0.618189708029197        0        
C2        C        0.71875        0.62963        0.618189708029197        0        
C3        C        0.6875        0.648148        0.618189708029197        0        
C4        C        0.71875        0.592592        0.618189708029197        0        
C_FG        C        0.75        0.018519        0.618189708029197        0.2        
C2        C        0.78125        0.074075        0.618189708029197        0        
C3        C        0.75        0.092592        0.618189708029197        0        
C4        C        0.78125        0.037037        0.618189708029197        0        
C1        C        0.75        0.12963        0.618189708029197        0        
C2        C        0.78125        0.185185        0.618189708029197        0        
C3        C        0.75        0.203703        0.618189708029197        0        
C4        C        0.78125        0.148148        0.618189708029197        0        
C_FG        C        0.75        0.24074099999999998        0.618189708029197        0.2        
C2        C        0.78125        0.296297        0.618189708029197        0        
C3        C        0.75        0.314815        0.618189708029197        0        
C4        C        0.78125        0.259259        0.618189708029197        0        
C1        C        0.75        0.351852        0.618189708029197        0        
C2        C        0.78125        0.407408        0.618189708029197        0        
C3        C        0.75        0.425925        0.618189708029197        0        
C4        C        0.78125        0.37037        0.618189708029197        0        
C_FG        C        0.75        0.46296300000000007        0.618189708029197        0.2        
C2        C        0.78125        0.518519        0.618189708029197        0        
C3        C        0.75        0.537037        0.618189708029197        0        
C4        C        0.78125        0.481481        0.618189708029197        0        
C1        C        0.75        0.574075        0.618189708029197        0        
C2        C        0.78125        0.62963        0.618189708029197        0        
C3        C        0.75        0.648148        0.618189708029197        0        
C4        C        0.78125        0.592592        0.618189708029197        0        
C1        C        0.8125        0.018519        0.618189708029197        0        
C2        C        0.84375        0.074075        0.618189708029197        0        
C3        C        0.8125        0.092592        0.618189708029197        0        
C4        C        0.84375        0.037037        0.618189708029197        0        
C1        C        0.8125        0.12963        0.618189708029197        0        
C2        C        0.84375        0.185185        0.618189708029197        0        
C3        C        0.8125        0.203703        0.618189708029197        0        
C4        C        0.84375        0.148148        0.618189708029197        0        
C1        C        0.8125        0.24074099999999998        0.618189708029197        0        
C2        C        0.84375        0.296297        0.618189708029197        0        
C3        C        0.8125        0.314815        0.618189708029197        0        
C4        C        0.84375        0.259259        0.618189708029197        0        
C1        C        0.8125        0.351852        0.618189708029197        0        
C2        C        0.84375        0.407408        0.618189708029197        0        
C3        C        0.8125        0.425925        0.618189708029197        0        
C4        C        0.84375        0.37037        0.618189708029197        0        
C1        C        0.8125        0.46296300000000007        0.618189708029197        0        
C2        C        0.84375        0.518519        0.618189708029197        0        
C3        C        0.8125        0.537037        0.618189708029197        0        
C4        C        0.84375        0.481481        0.618189708029197        0        
C1        C        0.8125        0.574075        0.618189708029197        0        
C2        C        0.84375        0.62963        0.618189708029197        0        
C3        C        0.8125        0.648148        0.618189708029197        0        
C4        C        0.84375        0.592592        0.618189708029197        0        
C1        C        0.875        0.018519        0.618189708029197        0        
C2        C        0.9062500000000001        0.074075        0.618189708029197        0        
C3        C        0.875        0.092592        0.618189708029197        0        
C4        C        0.9062500000000001        0.037037        0.618189708029197        0        
C1        C        0.875        0.12963        0.618189708029197        0        
C2        C        0.9062500000000001        0.185185        0.618189708029197        0        
C3        C        0.875        0.203703        0.618189708029197        0        
C4        C        0.9062500000000001        0.148148        0.618189708029197        0        
C1        C        0.875        0.24074099999999998        0.618189708029197        0        
C2        C        0.9062500000000001        0.296297        0.618189708029197        0        
C3        C        0.875        0.314815        0.618189708029197        0        
C4        C        0.9062500000000001        0.259259        0.618189708029197        0        
C1        C        0.875        0.351852        0.618189708029197        0        
C2        C        0.9062500000000001        0.407408        0.618189708029197        0        
C3        C        0.875        0.425925        0.618189708029197        0        
C4        C        0.9062500000000001        0.37037        0.618189708029197        0        
C1        C        0.875        0.46296300000000007        0.618189708029197        0        
C2        C        0.9062500000000001        0.518519        0.618189708029197        0        
C3        C        0.875        0.537037        0.618189708029197        0        
C4        C        0.9062500000000001        0.481481        0.618189708029197        0        
C1        C        0.875        0.574075        0.618189708029197        0        
C2        C        0.9062500000000001        0.62963        0.618189708029197        0        
C3        C        0.875        0.648148        0.618189708029197        0        
C4        C        0.9062500000000001        0.592592        0.618189708029197        0        
C_FG        C        0.9375        0.018519        0.618189708029197        0.2        
C2        C        0.9687500000000001        0.074075        0.618189708029197        0        
C3        C        0.9375        0.092592        0.618189708029197        0        
C4        C        0.9687500000000001        0.037037        0.618189708029197        0        
C1        C        0.9375        0.12963        0.618189708029197        0        
C2        C        0.9687500000000001        0.185185        0.618189708029197        0        
C3        C        0.9375        0.203703        0.618189708029197        0        
C4        C        0.9687500000000001        0.148148        0.618189708029197        0        
C_FG        C        0.9375        0.24074099999999998        0.618189708029197        0.2        
C2        C        0.9687500000000001        0.296297        0.618189708029197        0        
C3        C        0.9375        0.314815        0.618189708029197        0        
C4        C        0.9687500000000001        0.259259        0.618189708029197        0        
C1        C        0.9375        0.351852        0.618189708029197        0        
C2        C        0.9687500000000001        0.407408        0.618189708029197        0        
C3        C        0.9375        0.425925        0.618189708029197        0        
C4        C        0.9687500000000001        0.37037        0.618189708029197        0        
C_FG        C        0.9375        0.46296300000000007        0.618189708029197        0.2        
C2        C        0.9687500000000001        0.518519        0.618189708029197        0        
C3        C        0.9375        0.537037        0.618189708029197        0        
C4        C        0.9687500000000001        0.481481        0.618189708029197        0        
C1        C        0.9375        0.574075        0.618189708029197        0        
C2        C        0.9687500000000001        0.62963        0.618189708029197        0        
C3        C        0.9375        0.648148        0.618189708029197        0        
C4        C        0.9687500000000001        0.592592        0.618189708029197        0        
C_FG        C        0.0        0.685186        0.618189708029197        0.2        
C1        C        0.0625        0.685186        0.618189708029197        0        
C1        C        0.125        0.685186        0.618189708029197        0        
C_FG        C        0.1875        0.685186        0.618189708029197        0.2        
C1        C        0.25        0.685186        0.618189708029197        0        
C1        C        0.3125        0.685186        0.618189708029197        0        
C_FG        C        0.375        0.685186        0.618189708029197        0.2        
C1        C        0.4375        0.685186        0.618189708029197        0        
C1        C        0.5        0.685186        0.618189708029197        0        
C_FG        C        0.5625        0.685186        0.618189708029197        0.2        
C1        C        0.625        0.685186        0.618189708029197        0        
C1        C        0.6875        0.685186        0.618189708029197        0        
C_FG        C        0.75        0.685186        0.618189708029197        0.2        
C1        C        0.8125        0.685186        0.618189708029197        0        
C1        C        0.875        0.685186        0.618189708029197        0        
C_FG        C        0.9375        0.685186        0.618189708029197        0.2        
C2        C        0.03125        0.740741        0.618189708029197        0        
C2        C        0.09375        0.740741        0.618189708029197        0        
C2        C        0.15625        0.740741        0.618189708029197        0        
C2        C        0.21875        0.740741        0.618189708029197        0        
C2        C        0.28125        0.740741        0.618189708029197        0        
C2        C        0.34375        0.740741        0.618189708029197        0        
C2        C        0.40625        0.740741        0.618189708029197        0        
C2        C        0.46875        0.740741        0.618189708029197        0        
C2        C        0.53125        0.740741        0.618189708029197        0        
C2        C        0.59375        0.740741        0.618189708029197        0        
C2        C        0.65625        0.740741        0.618189708029197        0        
C2        C        0.71875        0.740741        0.618189708029197        0        
C2        C        0.78125        0.740741        0.618189708029197        0        
C2        C        0.84375        0.740741        0.618189708029197        0        
C2        C        0.9062500000000001        0.740741        0.618189708029197        0        
C2        C        0.9687500000000001        0.740741        0.618189708029197        0        
C3        C        0.0        0.759259        0.618189708029197        0        
C3        C        0.0625        0.759259        0.618189708029197        0        
C3        C        0.125        0.759259        0.618189708029197        0        
C3        C        0.1875        0.759259        0.618189708029197        0        
C3        C        0.25        0.759259        0.618189708029197        0        
C3        C        0.3125        0.759259        0.618189708029197        0        
C3        C        0.375        0.759259        0.618189708029197        0        
C3        C        0.4375        0.759259        0.618189708029197        0        
C3        C        0.5        0.759259        0.618189708029197        0        
C3        C        0.5625        0.759259        0.618189708029197        0        
C3        C        0.625        0.759259        0.618189708029197        0        
C3        C        0.6875        0.759259        0.618189708029197        0        
C3        C        0.75        0.759259        0.618189708029197        0        
C3        C        0.8125        0.759259        0.618189708029197        0        
C3        C        0.875        0.759259        0.618189708029197        0        
C3        C        0.9375        0.759259        0.618189708029197        0        
C4        C        0.03125        0.703703        0.618189708029197        0        
C4        C        0.09375        0.703703        0.618189708029197        0        
C4        C        0.15625        0.703703        0.618189708029197        0        
C4        C        0.21875        0.703703        0.618189708029197        0        
C4        C        0.28125        0.703703        0.618189708029197        0        
C4        C        0.34375        0.703703        0.618189708029197        0        
C4        C        0.40625        0.703703        0.618189708029197        0        
C4        C        0.46875        0.703703        0.618189708029197        0        
C4        C        0.53125        0.703703        0.618189708029197        0        
C4        C        0.59375        0.703703        0.618189708029197        0        
C4        C        0.65625        0.703703        0.618189708029197        0        
C4        C        0.71875        0.703703        0.618189708029197        0        
C4        C        0.78125        0.703703        0.618189708029197        0        
C4        C        0.84375        0.703703        0.618189708029197        0        
C4        C        0.9062500000000001        0.703703        0.618189708029197        0        
C4        C        0.9687500000000001        0.703703        0.618189708029197        0        
C1        C        0.0        0.796297        0.618189708029197        0        
C1        C        0.0625        0.796297        0.618189708029197        0        
C1        C        0.125        0.796297        0.618189708029197        0        
C1        C        0.1875        0.796297        0.618189708029197        0        
C1        C        0.25        0.796297        0.618189708029197        0        
C1        C        0.3125        0.796297        0.618189708029197        0        
C1        C        0.375        0.796297        0.618189708029197        0        
C1        C        0.4375        0.796297        0.618189708029197        0        
C1        C        0.5        0.796297        0.618189708029197        0        
C1        C        0.5625        0.796297        0.618189708029197        0        
C1        C        0.625        0.796297        0.618189708029197        0        
C1        C        0.6875        0.796297        0.618189708029197        0        
C1        C        0.75        0.796297        0.618189708029197        0        
C1        C        0.8125        0.796297        0.618189708029197        0        
C1        C        0.875        0.796297        0.618189708029197        0        
C1        C        0.9375        0.796297        0.618189708029197        0        
C2        C        0.03125        0.851852        0.618189708029197        0        
C2        C        0.09375        0.851852        0.618189708029197        0        
C2        C        0.15625        0.851852        0.618189708029197        0        
C2        C        0.21875        0.851852        0.618189708029197        0        
C2        C        0.28125        0.851852        0.618189708029197        0        
C2        C        0.34375        0.851852        0.618189708029197        0        
C2        C        0.40625        0.851852        0.618189708029197        0        
C2        C        0.46875        0.851852        0.618189708029197        0        
C2        C        0.53125        0.851852        0.618189708029197        0        
C2        C        0.59375        0.851852        0.618189708029197        0        
C2        C        0.65625        0.851852        0.618189708029197        0        
C2        C        0.71875        0.851852        0.618189708029197        0        
C2        C        0.78125        0.851852        0.618189708029197        0        
C2        C        0.84375        0.851852        0.618189708029197        0        
C2        C        0.9062500000000001        0.851852        0.618189708029197        0        
C2        C        0.9687500000000001        0.851852        0.618189708029197        0        
C3        C        0.0        0.87037        0.618189708029197        0        
C3        C        0.0625        0.87037        0.618189708029197        0        
C3        C        0.125        0.87037        0.618189708029197        0        
C3        C        0.1875        0.87037        0.618189708029197        0        
C3        C        0.25        0.87037        0.618189708029197        0        
C3        C        0.3125        0.87037        0.618189708029197        0        
C3        C        0.375        0.87037        0.618189708029197        0        
C3        C        0.4375        0.87037        0.618189708029197        0        
C3        C        0.5        0.87037        0.618189708029197        0        
C3        C        0.5625        0.87037        0.618189708029197        0        
C3        C        0.625        0.87037        0.618189708029197        0        
C3        C        0.6875        0.87037        0.618189708029197        0        
C3        C        0.75        0.87037        0.618189708029197        0        
C3        C        0.8125        0.87037        0.618189708029197        0        
C3        C        0.875        0.87037        0.618189708029197        0        
C3        C        0.9375        0.87037        0.618189708029197        0        
C4        C        0.03125        0.814814        0.618189708029197        0        
C4        C        0.09375        0.814814        0.618189708029197        0        
C4        C        0.15625        0.814814        0.618189708029197        0        
C4        C        0.21875        0.814814        0.618189708029197        0        
C4        C        0.28125        0.814814        0.618189708029197        0        
C4        C        0.34375        0.814814        0.618189708029197        0        
C4        C        0.40625        0.814814        0.618189708029197        0        
C4        C        0.46875        0.814814        0.618189708029197        0        
C4        C        0.53125        0.814814        0.618189708029197        0        
C4        C        0.59375        0.814814        0.618189708029197        0        
C4        C        0.65625        0.814814        0.618189708029197        0        
C4        C        0.71875        0.814814        0.618189708029197        0        
C4        C        0.78125        0.814814        0.618189708029197        0        
C4        C        0.84375        0.814814        0.618189708029197        0        
C4        C        0.9062500000000001        0.814814        0.618189708029197        0        
C4        C        0.9687500000000001        0.814814        0.618189708029197        0        
C_FG        C        0.0        0.907408        0.618189708029197        0.2        
C1        C        0.0625        0.907408        0.618189708029197        0        
C1        C        0.125        0.907408        0.618189708029197        0        
C_FG        C        0.1875        0.907408        0.618189708029197        0.2        
C1        C        0.25        0.907408        0.618189708029197        0        
C1        C        0.3125        0.907408        0.618189708029197        0        
C_FG        C        0.375        0.907408        0.618189708029197        0.2        
C1        C        0.4375        0.907408        0.618189708029197        0        
C1        C        0.5        0.907408        0.618189708029197        0        
C_FG        C        0.5625        0.907408        0.618189708029197        0.2        
C1        C        0.625        0.907408        0.618189708029197        0        
C1        C        0.6875        0.907408        0.618189708029197        0        
C_FG        C        0.75        0.907408        0.618189708029197        0.2        
C1        C        0.8125        0.907408        0.618189708029197        0        
C1        C        0.875        0.907408        0.618189708029197        0        
C_FG        C        0.9375        0.907408        0.618189708029197        0.2        
C2        C        0.03125        0.962963        0.618189708029197        0        
C2        C        0.09375        0.962963        0.618189708029197        0        
C2        C        0.15625        0.962963        0.618189708029197        0        
C2        C        0.21875        0.962963        0.618189708029197        0        
C2        C        0.28125        0.962963        0.618189708029197        0        
C2        C        0.34375        0.962963        0.618189708029197        0        
C2        C        0.40625        0.962963        0.618189708029197        0        
C2        C        0.46875        0.962963        0.618189708029197        0        
C2        C        0.53125        0.962963        0.618189708029197        0        
C2        C        0.59375        0.962963        0.618189708029197        0        
C2        C        0.65625        0.962963        0.618189708029197        0        
C2        C        0.71875        0.962963        0.618189708029197        0        
C2        C        0.78125        0.962963        0.618189708029197        0        
C2        C        0.84375        0.962963        0.618189708029197        0        
C2        C        0.9062500000000001        0.962963        0.618189708029197        0        
C2        C        0.9687500000000001        0.962963        0.618189708029197        0        
C3        C        0.0        0.9814809999999999        0.618189708029197        0        
C3        C        0.0625        0.9814809999999999        0.618189708029197        0        
C3        C        0.125        0.9814809999999999        0.618189708029197        0        
C3        C        0.1875        0.9814809999999999        0.618189708029197        0        
C3        C        0.25        0.9814809999999999        0.618189708029197        0        
C3        C        0.3125        0.9814809999999999        0.618189708029197        0        
C3        C        0.375        0.9814809999999999        0.618189708029197        0        
C3        C        0.4375        0.9814809999999999        0.618189708029197        0        
C3        C        0.5        0.9814809999999999        0.618189708029197        0        
C3        C        0.5625        0.9814809999999999        0.618189708029197        0        
C3        C        0.625        0.9814809999999999        0.618189708029197        0        
C3        C        0.6875        0.9814809999999999        0.618189708029197        0        
C3        C        0.75        0.9814809999999999        0.618189708029197        0        
C3        C        0.8125        0.9814809999999999        0.618189708029197        0        
C3        C        0.875        0.9814809999999999        0.618189708029197        0        
C3        C        0.9375        0.9814809999999999        0.618189708029197        0        
C4        C        0.03125        0.925925        0.618189708029197        0        
C4        C        0.09375        0.925925        0.618189708029197        0        
C4        C        0.15625        0.925925        0.618189708029197        0        
C4        C        0.21875        0.925925        0.618189708029197        0        
C4        C        0.28125        0.925925        0.618189708029197        0        
C4        C        0.34375        0.925925        0.618189708029197        0        
C4        C        0.40625        0.925925        0.618189708029197        0        
C4        C        0.46875        0.925925        0.618189708029197        0        
C4        C        0.53125        0.925925        0.618189708029197        0        
C4        C        0.59375        0.925925        0.618189708029197        0        
C4        C        0.65625        0.925925        0.618189708029197        0        
C4        C        0.71875        0.925925        0.618189708029197        0        
C4        C        0.78125        0.925925        0.618189708029197        0        
C4        C        0.84375        0.925925        0.618189708029197        0        
C4        C        0.9062500000000001        0.925925        0.618189708029197        0        
C4        C        0.9687500000000001        0.925925        0.618189708029197        0        
O_OH        O        0.0        0.018519        0.024540072992700723        -0.64        
O_OH        O        0.0        0.24074099999999998        0.024540072992700723        -0.64        
O_OH        O        0.0        0.46296300000000007        0.024540072992700723        -0.64        
O_OH        O        0.1875        0.018519        0.024540072992700723        -0.64        
O_OH        O        0.1875        0.24074099999999998        0.024540072992700723        -0.64        
O_OH        O        0.1875        0.46296300000000007        0.024540072992700723        -0.64        
O_OH        O        0.375        0.018519        0.024540072992700723        -0.64        
O_OH        O        0.375        0.24074099999999998        0.024540072992700723        -0.64        
O_OH        O        0.375        0.46296300000000007        0.024540072992700723        -0.64        
O_OH        O        0.5625        0.018519        0.024540072992700723        -0.64        
O_OH        O        0.5625        0.24074099999999998        0.024540072992700723        -0.64        
O_OH        O        0.5625        0.46296300000000007        0.024540072992700723        -0.64        
O_OH        O        0.75        0.018519        0.024540072992700723        -0.64        
O_OH        O        0.75        0.24074099999999998        0.024540072992700723        -0.64        
O_OH        O        0.75        0.46296300000000007        0.024540072992700723        -0.64        
O_OH        O        0.9375        0.018519        0.024540072992700723        -0.64        
O_OH        O        0.9375        0.24074099999999998        0.024540072992700723        -0.64        
O_OH        O        0.9375        0.46296300000000007        0.024540072992700723        -0.64        
O_OH        O        0.0        0.685186        0.024540072992700723        -0.64        
O_OH        O        0.1875        0.685186        0.024540072992700723        -0.64        
O_OH        O        0.375        0.685186        0.024540072992700723        -0.64        
O_OH        O        0.5625        0.685186        0.024540072992700723        -0.64        
O_OH        O        0.75        0.685186        0.024540072992700723        -0.64        
O_OH        O        0.9375        0.685186        0.024540072992700723        -0.64        
O_OH        O        0.0        0.907408        0.024540072992700723        -0.64        
O_OH        O        0.1875        0.907408        0.024540072992700723        -0.64        
O_OH        O        0.375        0.907408        0.024540072992700723        -0.64        
O_OH        O        0.5625        0.907408        0.024540072992700723        -0.64        
O_OH        O        0.75        0.907408        0.024540072992700723        -0.64        
O_OH        O        0.9375        0.907408        0.024540072992700723        -0.64        
O_OH        O        0.0        0.018519        0.7227882481751825        -0.64        
O_OH        O        0.0        0.24074099999999998        0.7227882481751825        -0.64        
O_OH        O        0.0        0.46296300000000007        0.7227882481751825        -0.64        
O_OH        O        0.1875        0.018519        0.7227882481751825        -0.64        
O_OH        O        0.1875        0.24074099999999998        0.7227882481751825        -0.64        
O_OH        O        0.1875        0.46296300000000007        0.7227882481751825        -0.64        
O_OH        O        0.375        0.018519        0.7227882481751825        -0.64        
O_OH        O        0.375        0.24074099999999998        0.7227882481751825        -0.64        
O_OH        O        0.375        0.46296300000000007        0.7227882481751825        -0.64        
O_OH        O        0.5625        0.018519        0.7227882481751825        -0.64        
O_OH        O        0.5625        0.24074099999999998        0.7227882481751825        -0.64        
O_OH        O        0.5625        0.46296300000000007        0.7227882481751825        -0.64        
O_OH        O        0.75        0.018519        0.7227882481751825        -0.64        
O_OH        O        0.75        0.24074099999999998        0.7227882481751825        -0.64        
O_OH        O        0.75        0.46296300000000007        0.7227882481751825        -0.64        
O_OH        O        0.9375        0.018519        0.7227882481751825        -0.64        
O_OH        O        0.9375        0.24074099999999998        0.7227882481751825        -0.64        
O_OH        O        0.9375        0.46296300000000007        0.7227882481751825        -0.64        
O_OH        O        0.0        0.685186        0.7227882481751825        -0.64        
O_OH        O        0.1875        0.685186        0.7227882481751825        -0.64        
O_OH        O        0.375        0.685186        0.7227882481751825        -0.64        
O_OH        O        0.5625        0.685186        0.7227882481751825        -0.64        
O_OH        O        0.75        0.685186        0.7227882481751825        -0.64        
O_OH        O        0.9375        0.685186        0.7227882481751825        -0.64        
O_OH        O        0.0        0.907408        0.7227882481751825        -0.64        
O_OH        O        0.1875        0.907408        0.7227882481751825        -0.64        
O_OH        O        0.375        0.907408        0.7227882481751825        -0.64        
O_OH        O        0.5625        0.907408        0.7227882481751825        -0.64        
O_OH        O        0.75        0.907408        0.7227882481751825        -0.64        
O_OH        O        0.9375        0.907408        0.7227882481751825        -0.64        
H_OH        H        -0.010799733892018654        0.03918640567947827        0.0        0.44        
H_OH        H        -0.016778926695716834        0.2566580630214386        0.0        0.44        
H_OH        H        0.006329027602446825        0.4854984847719315        0.0        0.44        
H_OH        H        0.16749069588629273        0.029837377310244707        0.0        0.44        
H_OH        H        0.16480951274034975        0.24346993545610557        0.0        0.44        
H_OH        H        0.2049660975866256        0.4780809347854838        0.0        0.44        
H_OH        H        0.38296040619585375        0.04050262431296529        0.0        0.44        
H_OH        H        0.39233228466032666        0.25602038099384733        0.0        0.44        
H_OH        H        0.3955009615331111        0.4733126202682635        0.0        0.44        
H_OH        H        0.582560804492158        0.029740888295203043        0.0        0.44        
H_OH        H        0.5407642057898105        0.24796230953783938        0.0        0.44        
H_OH        H        0.5500462873410096        0.48262533217335163        0.0        0.44        
H_OH        H        0.7292049090615447        0.028230507245422417        0.0        0.44        
H_OH        H        0.7667629147044835        0.25667583365488944        0.0        0.44        
H_OH        H        0.7636402617261638        0.48177725504248853        0.0        0.44        
H_OH        H        0.9600786360437589        0.022094401151889074        0.0        0.44        
H_OH        H        0.934797087651825        0.2640297251999116        0.0        0.44        
H_OH        H        0.9214787770546121        0.47968261880129975        0.0        0.44        
H_OH        H        0.01927083160360725        0.6977827027621429        0.0        0.44        
H_OH        H        0.20851628133066244        0.694382002936529        0.0        0.44        
H_OH        H        0.3542818859695383        0.6950693811308091        0.0        0.44        
H_OH        H        0.584786097687057        0.6903450480396172        0.0        0.44        
H_OH        H        0.7718371480256305        0.6920775106841264        0.0        0.44        
H_OH        H        0.9146624264131883        0.6858100853887847        0.0        0.44        
H_OH        H        0.011944485241849538        0.9274005336459354        0.0        0.44        
H_OH        H        0.20945495069209802        0.9138930559512122        0.0        0.44        
H_OH        H        0.37314064037524636        0.930783644048759        0.0        0.44        
H_OH        H        0.5795840282984868        0.9229792624237754        0.0        0.44        
H_OH        H        0.734829466715385        0.924943985557026        0.0        0.44        
H_OH        H        0.9245223720246168        0.9267099446960525        0.0        0.44        
H_OH        H        -0.02033550093149498        0.029207113293577384        0.7473283211678833        0.44        
H_OH        H        -0.020322183038314914        0.25145577645923795        0.7473283211678833        0.44        
H_OH        H        0.006824551712092615        0.4853455543413841        0.7473283211678833        0.44        
H_OH        H        0.20884783170811216        0.02687144504093256        0.7473283211678833        0.44        
H_OH        H        0.20446630731365162        0.2564473290162839        0.7473283211678833        0.44        
H_OH        H        0.17853312572597038        0.48453437959423784        0.7473283211678833        0.44        
H_OH        H        0.35242976897861444        0.02214989940606091        0.7473283211678833        0.44        
H_OH        H        0.376859134574275        0.26411666291386526        0.7473283211678833        0.44        
H_OH        H        0.3815314900508049        0.48543751706428545        0.7473283211678833        0.44        
H_OH        H        0.5666937080530581        0.041573911309239445        0.7473283211678833        0.44        
H_OH        H        0.5579902627403056        0.26373295717036266        0.7473283211678833        0.44        
H_OH        H        0.552454345546031        0.48402738332232925        0.7473283211678833        0.44        
H_OH        H        0.7648086083315153        0.03637805897018993        0.7473283211678833        0.44        
H_OH        H        0.7291408578818065        0.2503066428117087        0.7473283211678833        0.44        
H_OH        H        0.7274994732285319        0.4670243344306875        0.7473283211678833        0.44        
H_OH        H        0.9451073393506412        0.040633984493020386        0.7473283211678833        0.44        
H_OH        H        0.9458961186220938        0.26255312396943403        0.7473283211678833        0.44        
H_OH        H        0.9380832864089736        0.4864088052861954        0.7473283211678833        0.44        
H_OH        H        0.007665497119636992        0.7072798094288403        0.7473283211678833        0.44        
H_OH        H        0.210214302335015        0.6876974676909642        0.7473283211678833        0.44        
H_OH        H        0.3970421434756301        0.6913514592515995        0.7473283211678833        0.44        
H_OH        H        0.5568105454655851        0.7079005153309905        0.7473283211678833        0.44        
H_OH        H        0.7714822100065367        0.6931670776757075        0.7473283211678833        0.44        
H_OH        H        0.9230319995366993        0.7033369082874424        0.7473283211678833        0.44        
H_OH        H        -0.011150324742984568        0.9278782530130983        0.7473283211678833        0.44        
H_OH        H        0.1780101183017575        0.928742266937926        0.7473283211678833        0.44        
H_OH        H        0.35469200078518076        0.918151081363334        0.7473283211678833        0.44        
H_OH        H        0.5468797424394881        0.924522813172679        0.7473283211678833        0.44        
H_OH        H        0.7285228663653226        0.9154034634838872        0.7473283211678833        0.44        
H_OH        H        0.9261927174606605        0.9277873109267675        0.7473283211678833        0.44        
