data_graphite_ortho

_audit_creation_method RASPA-1.0
_audit_creation_date 2012-2-3
_audit_author_name 'David Dubbeldam'

_cell_length_a    39.36    
_cell_length_b    38.339999999999996    
_cell_length_c    13.7    
_cell_angle_alpha 90
_cell_angle_beta  90
_cell_angle_gamma 90
_cell_volume      20674.15      

_symmetry_cell_setting          triclinic
_symmetry_space_group_name_Hall 'P 1'
_symmetry_space_group_name_H-M  'P 1'
_symmetry_Int_Tables_number     1

_symmetry_equiv_pos_as_xyz 'x,y,z'

loop_
_atom_site_label
_atom_site_type_symbol
_atom_site_fract_x
_atom_site_fract_y
_atom_site_fract_z
_atom_site_charge
C_FG        C        0.0        0.018519        0.16947        0.08        
C2        C        0.03125        0.074075        0.16947        0        
C3        C        0.0        0.092592        0.16947        0        
C4        C        0.03125        0.037037        0.16947        0        
C_FG        C        0.0        0.12963        0.16947        0.08        
C2        C        0.03125        0.185185        0.16947        0        
C3        C        0.0        0.203703        0.16947        0        
C4        C        0.03125        0.148148        0.16947        0        
C_FG        C        0.0        0.24074099999999998        0.16947        0.08        
C2        C        0.03125        0.296297        0.16947        0        
C3        C        0.0        0.314815        0.16947        0        
C4        C        0.03125        0.259259        0.16947        0        
C_FG        C        0.0        0.351852        0.16947        0.08        
C2        C        0.03125        0.407408        0.16947        0        
C3        C        0.0        0.425925        0.16947        0        
C4        C        0.03125        0.37037        0.16947        0        
C_FG        C        0.0        0.46296300000000007        0.16947        0.08        
C2        C        0.03125        0.518519        0.16947        0        
C3        C        0.0        0.537037        0.16947        0        
C4        C        0.03125        0.481481        0.16947        0        
C_FG        C        0.0        0.574075        0.16947        0.08        
C2        C        0.03125        0.62963        0.16947        0        
C3        C        0.0        0.648148        0.16947        0        
C4        C        0.03125        0.592592        0.16947        0        
C1        C        0.0625        0.018519        0.16947        0        
C2        C        0.09375        0.074075        0.16947        0        
C3        C        0.0625        0.092592        0.16947        0        
C4        C        0.09375        0.037037        0.16947        0        
C1        C        0.0625        0.12963        0.16947        0        
C2        C        0.09375        0.185185        0.16947        0        
C3        C        0.0625        0.203703        0.16947        0        
C4        C        0.09375        0.148148        0.16947        0        
C1        C        0.0625        0.24074099999999998        0.16947        0        
C2        C        0.09375        0.296297        0.16947        0        
C3        C        0.0625        0.314815        0.16947        0        
C4        C        0.09375        0.259259        0.16947        0        
C1        C        0.0625        0.351852        0.16947        0        
C2        C        0.09375        0.407408        0.16947        0        
C3        C        0.0625        0.425925        0.16947        0        
C4        C        0.09375        0.37037        0.16947        0        
C1        C        0.0625        0.46296300000000007        0.16947        0        
C2        C        0.09375        0.518519        0.16947        0        
C3        C        0.0625        0.537037        0.16947        0        
C4        C        0.09375        0.481481        0.16947        0        
C1        C        0.0625        0.574075        0.16947        0        
C2        C        0.09375        0.62963        0.16947        0        
C3        C        0.0625        0.648148        0.16947        0        
C4        C        0.09375        0.592592        0.16947        0        
C1        C        0.125        0.018519        0.16947        0        
C2        C        0.15625        0.074075        0.16947        0        
C3        C        0.125        0.092592        0.16947        0        
C4        C        0.15625        0.037037        0.16947        0        
C1        C        0.125        0.12963        0.16947        0        
C2        C        0.15625        0.185185        0.16947        0        
C3        C        0.125        0.203703        0.16947        0        
C4        C        0.15625        0.148148        0.16947        0        
C1        C        0.125        0.24074099999999998        0.16947        0        
C2        C        0.15625        0.296297        0.16947        0        
C3        C        0.125        0.314815        0.16947        0        
C4        C        0.15625        0.259259        0.16947        0        
C1        C        0.125        0.351852        0.16947        0        
C2        C        0.15625        0.407408        0.16947        0        
C3        C        0.125        0.425925        0.16947        0        
C4        C        0.15625        0.37037        0.16947        0        
C1        C        0.125        0.46296300000000007        0.16947        0        
C2        C        0.15625        0.518519        0.16947        0        
C3        C        0.125        0.537037        0.16947        0        
C4        C        0.15625        0.481481        0.16947        0        
C1        C        0.125        0.574075        0.16947        0        
C2        C        0.15625        0.62963        0.16947        0        
C3        C        0.125        0.648148        0.16947        0        
C4        C        0.15625        0.592592        0.16947        0        
C1        C        0.1875        0.018519        0.16947        0        
C2        C        0.21875        0.074075        0.16947        0        
C3        C        0.1875        0.092592        0.16947        0        
C4        C        0.21875        0.037037        0.16947        0        
C1        C        0.1875        0.12963        0.16947        0        
C2        C        0.21875        0.185185        0.16947        0        
C3        C        0.1875        0.203703        0.16947        0        
C4        C        0.21875        0.148148        0.16947        0        
C1        C        0.1875        0.24074099999999998        0.16947        0        
C2        C        0.21875        0.296297        0.16947        0        
C3        C        0.1875        0.314815        0.16947        0        
C4        C        0.21875        0.259259        0.16947        0        
C1        C        0.1875        0.351852        0.16947        0        
C2        C        0.21875        0.407408        0.16947        0        
C3        C        0.1875        0.425925        0.16947        0        
C4        C        0.21875        0.37037        0.16947        0        
C1        C        0.1875        0.46296300000000007        0.16947        0        
C2        C        0.21875        0.518519        0.16947        0        
C3        C        0.1875        0.537037        0.16947        0        
C4        C        0.21875        0.481481        0.16947        0        
C1        C        0.1875        0.574075        0.16947        0        
C2        C        0.21875        0.62963        0.16947        0        
C3        C        0.1875        0.648148        0.16947        0        
C4        C        0.21875        0.592592        0.16947        0        
C_FG        C        0.25        0.018519        0.16947        0.08        
C2        C        0.28125        0.074075        0.16947        0        
C3        C        0.25        0.092592        0.16947        0        
C4        C        0.28125        0.037037        0.16947        0        
C_FG        C        0.25        0.12963        0.16947        0.08        
C2        C        0.28125        0.185185        0.16947        0        
C3        C        0.25        0.203703        0.16947        0        
C4        C        0.28125        0.148148        0.16947        0        
C_FG        C        0.25        0.24074099999999998        0.16947        0.08        
C2        C        0.28125        0.296297        0.16947        0        
C3        C        0.25        0.314815        0.16947        0        
C4        C        0.28125        0.259259        0.16947        0        
C_FG        C        0.25        0.351852        0.16947        0.08        
C2        C        0.28125        0.407408        0.16947        0        
C3        C        0.25        0.425925        0.16947        0        
C4        C        0.28125        0.37037        0.16947        0        
C_FG        C        0.25        0.46296300000000007        0.16947        0.08        
C2        C        0.28125        0.518519        0.16947        0        
C3        C        0.25        0.537037        0.16947        0        
C4        C        0.28125        0.481481        0.16947        0        
C_FG        C        0.25        0.574075        0.16947        0.08        
C2        C        0.28125        0.62963        0.16947        0        
C3        C        0.25        0.648148        0.16947        0        
C4        C        0.28125        0.592592        0.16947        0        
C1        C        0.3125        0.018519        0.16947        0        
C2        C        0.34375        0.074075        0.16947        0        
C3        C        0.3125        0.092592        0.16947        0        
C4        C        0.34375        0.037037        0.16947        0        
C1        C        0.3125        0.12963        0.16947        0        
C2        C        0.34375        0.185185        0.16947        0        
C3        C        0.3125        0.203703        0.16947        0        
C4        C        0.34375        0.148148        0.16947        0        
C1        C        0.3125        0.24074099999999998        0.16947        0        
C2        C        0.34375        0.296297        0.16947        0        
C3        C        0.3125        0.314815        0.16947        0        
C4        C        0.34375        0.259259        0.16947        0        
C1        C        0.3125        0.351852        0.16947        0        
C2        C        0.34375        0.407408        0.16947        0        
C3        C        0.3125        0.425925        0.16947        0        
C4        C        0.34375        0.37037        0.16947        0        
C1        C        0.3125        0.46296300000000007        0.16947        0        
C2        C        0.34375        0.518519        0.16947        0        
C3        C        0.3125        0.537037        0.16947        0        
C4        C        0.34375        0.481481        0.16947        0        
C1        C        0.3125        0.574075        0.16947        0        
C2        C        0.34375        0.62963        0.16947        0        
C3        C        0.3125        0.648148        0.16947        0        
C4        C        0.34375        0.592592        0.16947        0        
C1        C        0.375        0.018519        0.16947        0        
C2        C        0.40625        0.074075        0.16947        0        
C3        C        0.375        0.092592        0.16947        0        
C4        C        0.40625        0.037037        0.16947        0        
C1        C        0.375        0.12963        0.16947        0        
C2        C        0.40625        0.185185        0.16947        0        
C3        C        0.375        0.203703        0.16947        0        
C4        C        0.40625        0.148148        0.16947        0        
C1        C        0.375        0.24074099999999998        0.16947        0        
C2        C        0.40625        0.296297        0.16947        0        
C3        C        0.375        0.314815        0.16947        0        
C4        C        0.40625        0.259259        0.16947        0        
C1        C        0.375        0.351852        0.16947        0        
C2        C        0.40625        0.407408        0.16947        0        
C3        C        0.375        0.425925        0.16947        0        
C4        C        0.40625        0.37037        0.16947        0        
C1        C        0.375        0.46296300000000007        0.16947        0        
C2        C        0.40625        0.518519        0.16947        0        
C3        C        0.375        0.537037        0.16947        0        
C4        C        0.40625        0.481481        0.16947        0        
C1        C        0.375        0.574075        0.16947        0        
C2        C        0.40625        0.62963        0.16947        0        
C3        C        0.375        0.648148        0.16947        0        
C4        C        0.40625        0.592592        0.16947        0        
C1        C        0.4375        0.018519        0.16947        0        
C2        C        0.46875        0.074075        0.16947        0        
C3        C        0.4375        0.092592        0.16947        0        
C4        C        0.46875        0.037037        0.16947        0        
C1        C        0.4375        0.12963        0.16947        0        
C2        C        0.46875        0.185185        0.16947        0        
C3        C        0.4375        0.203703        0.16947        0        
C4        C        0.46875        0.148148        0.16947        0        
C1        C        0.4375        0.24074099999999998        0.16947        0        
C2        C        0.46875        0.296297        0.16947        0        
C3        C        0.4375        0.314815        0.16947        0        
C4        C        0.46875        0.259259        0.16947        0        
C1        C        0.4375        0.351852        0.16947        0        
C2        C        0.46875        0.407408        0.16947        0        
C3        C        0.4375        0.425925        0.16947        0        
C4        C        0.46875        0.37037        0.16947        0        
C1        C        0.4375        0.46296300000000007        0.16947        0        
C2        C        0.46875        0.518519        0.16947        0        
C3        C        0.4375        0.537037        0.16947        0        
C4        C        0.46875        0.481481        0.16947        0        
C1        C        0.4375        0.574075        0.16947        0        
C2        C        0.46875        0.62963        0.16947        0        
C3        C        0.4375        0.648148        0.16947        0        
C4        C        0.46875        0.592592        0.16947        0        
C_FG        C        0.5        0.018519        0.16947        0.08        
C2        C        0.53125        0.074075        0.16947        0        
C3        C        0.5        0.092592        0.16947        0        
C4        C        0.53125        0.037037        0.16947        0        
C_FG        C        0.5        0.12963        0.16947        0.08        
C2        C        0.53125        0.185185        0.16947        0        
C3        C        0.5        0.203703        0.16947        0        
C4        C        0.53125        0.148148        0.16947        0        
C_FG        C        0.5        0.24074099999999998        0.16947        0.08        
C2        C        0.53125        0.296297        0.16947        0        
C3        C        0.5        0.314815        0.16947        0        
C4        C        0.53125        0.259259        0.16947        0        
C_FG        C        0.5        0.351852        0.16947        0.08        
C2        C        0.53125        0.407408        0.16947        0        
C3        C        0.5        0.425925        0.16947        0        
C4        C        0.53125        0.37037        0.16947        0        
C_FG        C        0.5        0.46296300000000007        0.16947        0.08        
C2        C        0.53125        0.518519        0.16947        0        
C3        C        0.5        0.537037        0.16947        0        
C4        C        0.53125        0.481481        0.16947        0        
C_FG        C        0.5        0.574075        0.16947        0.08        
C2        C        0.53125        0.62963        0.16947        0        
C3        C        0.5        0.648148        0.16947        0        
C4        C        0.53125        0.592592        0.16947        0        
C1        C        0.5625        0.018519        0.16947        0        
C2        C        0.59375        0.074075        0.16947        0        
C3        C        0.5625        0.092592        0.16947        0        
C4        C        0.59375        0.037037        0.16947        0        
C1        C        0.5625        0.12963        0.16947        0        
C2        C        0.59375        0.185185        0.16947        0        
C3        C        0.5625        0.203703        0.16947        0        
C4        C        0.59375        0.148148        0.16947        0        
C1        C        0.5625        0.24074099999999998        0.16947        0        
C2        C        0.59375        0.296297        0.16947        0        
C3        C        0.5625        0.314815        0.16947        0        
C4        C        0.59375        0.259259        0.16947        0        
C1        C        0.5625        0.351852        0.16947        0        
C2        C        0.59375        0.407408        0.16947        0        
C3        C        0.5625        0.425925        0.16947        0        
C4        C        0.59375        0.37037        0.16947        0        
C1        C        0.5625        0.46296300000000007        0.16947        0        
C2        C        0.59375        0.518519        0.16947        0        
C3        C        0.5625        0.537037        0.16947        0        
C4        C        0.59375        0.481481        0.16947        0        
C1        C        0.5625        0.574075        0.16947        0        
C2        C        0.59375        0.62963        0.16947        0        
C3        C        0.5625        0.648148        0.16947        0        
C4        C        0.59375        0.592592        0.16947        0        
C1        C        0.625        0.018519        0.16947        0        
C2        C        0.65625        0.074075        0.16947        0        
C3        C        0.625        0.092592        0.16947        0        
C4        C        0.65625        0.037037        0.16947        0        
C1        C        0.625        0.12963        0.16947        0        
C2        C        0.65625        0.185185        0.16947        0        
C3        C        0.625        0.203703        0.16947        0        
C4        C        0.65625        0.148148        0.16947        0        
C1        C        0.625        0.24074099999999998        0.16947        0        
C2        C        0.65625        0.296297        0.16947        0        
C3        C        0.625        0.314815        0.16947        0        
C4        C        0.65625        0.259259        0.16947        0        
C1        C        0.625        0.351852        0.16947        0        
C2        C        0.65625        0.407408        0.16947        0        
C3        C        0.625        0.425925        0.16947        0        
C4        C        0.65625        0.37037        0.16947        0        
C1        C        0.625        0.46296300000000007        0.16947        0        
C2        C        0.65625        0.518519        0.16947        0        
C3        C        0.625        0.537037        0.16947        0        
C4        C        0.65625        0.481481        0.16947        0        
C1        C        0.625        0.574075        0.16947        0        
C2        C        0.65625        0.62963        0.16947        0        
C3        C        0.625        0.648148        0.16947        0        
C4        C        0.65625        0.592592        0.16947        0        
C1        C        0.6875        0.018519        0.16947        0        
C2        C        0.71875        0.074075        0.16947        0        
C3        C        0.6875        0.092592        0.16947        0        
C4        C        0.71875        0.037037        0.16947        0        
C1        C        0.6875        0.12963        0.16947        0        
C2        C        0.71875        0.185185        0.16947        0        
C3        C        0.6875        0.203703        0.16947        0        
C4        C        0.71875        0.148148        0.16947        0        
C1        C        0.6875        0.24074099999999998        0.16947        0        
C2        C        0.71875        0.296297        0.16947        0        
C3        C        0.6875        0.314815        0.16947        0        
C4        C        0.71875        0.259259        0.16947        0        
C1        C        0.6875        0.351852        0.16947        0        
C2        C        0.71875        0.407408        0.16947        0        
C3        C        0.6875        0.425925        0.16947        0        
C4        C        0.71875        0.37037        0.16947        0        
C1        C        0.6875        0.46296300000000007        0.16947        0        
C2        C        0.71875        0.518519        0.16947        0        
C3        C        0.6875        0.537037        0.16947        0        
C4        C        0.71875        0.481481        0.16947        0        
C1        C        0.6875        0.574075        0.16947        0        
C2        C        0.71875        0.62963        0.16947        0        
C3        C        0.6875        0.648148        0.16947        0        
C4        C        0.71875        0.592592        0.16947        0        
C_FG        C        0.75        0.018519        0.16947        0.08        
C2        C        0.78125        0.074075        0.16947        0        
C3        C        0.75        0.092592        0.16947        0        
C4        C        0.78125        0.037037        0.16947        0        
C_FG        C        0.75        0.12963        0.16947        0.08        
C2        C        0.78125        0.185185        0.16947        0        
C3        C        0.75        0.203703        0.16947        0        
C4        C        0.78125        0.148148        0.16947        0        
C_FG        C        0.75        0.24074099999999998        0.16947        0.08        
C2        C        0.78125        0.296297        0.16947        0        
C3        C        0.75        0.314815        0.16947        0        
C4        C        0.78125        0.259259        0.16947        0        
C_FG        C        0.75        0.351852        0.16947        0.08        
C2        C        0.78125        0.407408        0.16947        0        
C3        C        0.75        0.425925        0.16947        0        
C4        C        0.78125        0.37037        0.16947        0        
C_FG        C        0.75        0.46296300000000007        0.16947        0.08        
C2        C        0.78125        0.518519        0.16947        0        
C3        C        0.75        0.537037        0.16947        0        
C4        C        0.78125        0.481481        0.16947        0        
C_FG        C        0.75        0.574075        0.16947        0.08        
C2        C        0.78125        0.62963        0.16947        0        
C3        C        0.75        0.648148        0.16947        0        
C4        C        0.78125        0.592592        0.16947        0        
C1        C        0.8125        0.018519        0.16947        0        
C2        C        0.84375        0.074075        0.16947        0        
C3        C        0.8125        0.092592        0.16947        0        
C4        C        0.84375        0.037037        0.16947        0        
C1        C        0.8125        0.12963        0.16947        0        
C2        C        0.84375        0.185185        0.16947        0        
C3        C        0.8125        0.203703        0.16947        0        
C4        C        0.84375        0.148148        0.16947        0        
C1        C        0.8125        0.24074099999999998        0.16947        0        
C2        C        0.84375        0.296297        0.16947        0        
C3        C        0.8125        0.314815        0.16947        0        
C4        C        0.84375        0.259259        0.16947        0        
C1        C        0.8125        0.351852        0.16947        0        
C2        C        0.84375        0.407408        0.16947        0        
C3        C        0.8125        0.425925        0.16947        0        
C4        C        0.84375        0.37037        0.16947        0        
C1        C        0.8125        0.46296300000000007        0.16947        0        
C2        C        0.84375        0.518519        0.16947        0        
C3        C        0.8125        0.537037        0.16947        0        
C4        C        0.84375        0.481481        0.16947        0        
C1        C        0.8125        0.574075        0.16947        0        
C2        C        0.84375        0.62963        0.16947        0        
C3        C        0.8125        0.648148        0.16947        0        
C4        C        0.84375        0.592592        0.16947        0        
C1        C        0.875        0.018519        0.16947        0        
C2        C        0.9062500000000001        0.074075        0.16947        0        
C3        C        0.875        0.092592        0.16947        0        
C4        C        0.9062500000000001        0.037037        0.16947        0        
C1        C        0.875        0.12963        0.16947        0        
C2        C        0.9062500000000001        0.185185        0.16947        0        
C3        C        0.875        0.203703        0.16947        0        
C4        C        0.9062500000000001        0.148148        0.16947        0        
C1        C        0.875        0.24074099999999998        0.16947        0        
C2        C        0.9062500000000001        0.296297        0.16947        0        
C3        C        0.875        0.314815        0.16947        0        
C4        C        0.9062500000000001        0.259259        0.16947        0        
C1        C        0.875        0.351852        0.16947        0        
C2        C        0.9062500000000001        0.407408        0.16947        0        
C3        C        0.875        0.425925        0.16947        0        
C4        C        0.9062500000000001        0.37037        0.16947        0        
C1        C        0.875        0.46296300000000007        0.16947        0        
C2        C        0.9062500000000001        0.518519        0.16947        0        
C3        C        0.875        0.537037        0.16947        0        
C4        C        0.9062500000000001        0.481481        0.16947        0        
C1        C        0.875        0.574075        0.16947        0        
C2        C        0.9062500000000001        0.62963        0.16947        0        
C3        C        0.875        0.648148        0.16947        0        
C4        C        0.9062500000000001        0.592592        0.16947        0        
C1        C        0.9375        0.018519        0.16947        0        
C2        C        0.9687500000000001        0.074075        0.16947        0        
C3        C        0.9375        0.092592        0.16947        0        
C4        C        0.9687500000000001        0.037037        0.16947        0        
C1        C        0.9375        0.12963        0.16947        0        
C2        C        0.9687500000000001        0.185185        0.16947        0        
C3        C        0.9375        0.203703        0.16947        0        
C4        C        0.9687500000000001        0.148148        0.16947        0        
C1        C        0.9375        0.24074099999999998        0.16947        0        
C2        C        0.9687500000000001        0.296297        0.16947        0        
C3        C        0.9375        0.314815        0.16947        0        
C4        C        0.9687500000000001        0.259259        0.16947        0        
C1        C        0.9375        0.351852        0.16947        0        
C2        C        0.9687500000000001        0.407408        0.16947        0        
C3        C        0.9375        0.425925        0.16947        0        
C4        C        0.9687500000000001        0.37037        0.16947        0        
C1        C        0.9375        0.46296300000000007        0.16947        0        
C2        C        0.9687500000000001        0.518519        0.16947        0        
C3        C        0.9375        0.537037        0.16947        0        
C4        C        0.9687500000000001        0.481481        0.16947        0        
C1        C        0.9375        0.574075        0.16947        0        
C2        C        0.9687500000000001        0.62963        0.16947        0        
C3        C        0.9375        0.648148        0.16947        0        
C4        C        0.9687500000000001        0.592592        0.16947        0        
C_FG        C        0.0        0.685186        0.16947        0.08        
C1        C        0.0625        0.685186        0.16947        0        
C1        C        0.125        0.685186        0.16947        0        
C1        C        0.1875        0.685186        0.16947        0        
C_FG        C        0.25        0.685186        0.16947        0.08        
C1        C        0.3125        0.685186        0.16947        0        
C1        C        0.375        0.685186        0.16947        0        
C1        C        0.4375        0.685186        0.16947        0        
C_FG        C        0.5        0.685186        0.16947        0.08        
C1        C        0.5625        0.685186        0.16947        0        
C1        C        0.625        0.685186        0.16947        0        
C1        C        0.6875        0.685186        0.16947        0        
C_FG        C        0.75        0.685186        0.16947        0.08        
C1        C        0.8125        0.685186        0.16947        0        
C1        C        0.875        0.685186        0.16947        0        
C1        C        0.9375        0.685186        0.16947        0        
C2        C        0.03125        0.740741        0.16947        0        
C2        C        0.09375        0.740741        0.16947        0        
C2        C        0.15625        0.740741        0.16947        0        
C2        C        0.21875        0.740741        0.16947        0        
C2        C        0.28125        0.740741        0.16947        0        
C2        C        0.34375        0.740741        0.16947        0        
C2        C        0.40625        0.740741        0.16947        0        
C2        C        0.46875        0.740741        0.16947        0        
C2        C        0.53125        0.740741        0.16947        0        
C2        C        0.59375        0.740741        0.16947        0        
C2        C        0.65625        0.740741        0.16947        0        
C2        C        0.71875        0.740741        0.16947        0        
C2        C        0.78125        0.740741        0.16947        0        
C2        C        0.84375        0.740741        0.16947        0        
C2        C        0.9062500000000001        0.740741        0.16947        0        
C2        C        0.9687500000000001        0.740741        0.16947        0        
C3        C        0.0        0.759259        0.16947        0        
C3        C        0.0625        0.759259        0.16947        0        
C3        C        0.125        0.759259        0.16947        0        
C3        C        0.1875        0.759259        0.16947        0        
C3        C        0.25        0.759259        0.16947        0        
C3        C        0.3125        0.759259        0.16947        0        
C3        C        0.375        0.759259        0.16947        0        
C3        C        0.4375        0.759259        0.16947        0        
C3        C        0.5        0.759259        0.16947        0        
C3        C        0.5625        0.759259        0.16947        0        
C3        C        0.625        0.759259        0.16947        0        
C3        C        0.6875        0.759259        0.16947        0        
C3        C        0.75        0.759259        0.16947        0        
C3        C        0.8125        0.759259        0.16947        0        
C3        C        0.875        0.759259        0.16947        0        
C3        C        0.9375        0.759259        0.16947        0        
C4        C        0.03125        0.703703        0.16947        0        
C4        C        0.09375        0.703703        0.16947        0        
C4        C        0.15625        0.703703        0.16947        0        
C4        C        0.21875        0.703703        0.16947        0        
C4        C        0.28125        0.703703        0.16947        0        
C4        C        0.34375        0.703703        0.16947        0        
C4        C        0.40625        0.703703        0.16947        0        
C4        C        0.46875        0.703703        0.16947        0        
C4        C        0.53125        0.703703        0.16947        0        
C4        C        0.59375        0.703703        0.16947        0        
C4        C        0.65625        0.703703        0.16947        0        
C4        C        0.71875        0.703703        0.16947        0        
C4        C        0.78125        0.703703        0.16947        0        
C4        C        0.84375        0.703703        0.16947        0        
C4        C        0.9062500000000001        0.703703        0.16947        0        
C4        C        0.9687500000000001        0.703703        0.16947        0        
C_FG        C        0.0        0.796297        0.16947        0.08        
C1        C        0.0625        0.796297        0.16947        0        
C1        C        0.125        0.796297        0.16947        0        
C1        C        0.1875        0.796297        0.16947        0        
C_FG        C        0.25        0.796297        0.16947        0.08        
C1        C        0.3125        0.796297        0.16947        0        
C1        C        0.375        0.796297        0.16947        0        
C1        C        0.4375        0.796297        0.16947        0        
C_FG        C        0.5        0.796297        0.16947        0.08        
C1        C        0.5625        0.796297        0.16947        0        
C1        C        0.625        0.796297        0.16947        0        
C1        C        0.6875        0.796297        0.16947        0        
C_FG        C        0.75        0.796297        0.16947        0.08        
C1        C        0.8125        0.796297        0.16947        0        
C1        C        0.875        0.796297        0.16947        0        
C1        C        0.9375        0.796297        0.16947        0        
C2        C        0.03125        0.851852        0.16947        0        
C2        C        0.09375        0.851852        0.16947        0        
C2        C        0.15625        0.851852        0.16947        0        
C2        C        0.21875        0.851852        0.16947        0        
C2        C        0.28125        0.851852        0.16947        0        
C2        C        0.34375        0.851852        0.16947        0        
C2        C        0.40625        0.851852        0.16947        0        
C2        C        0.46875        0.851852        0.16947        0        
C2        C        0.53125        0.851852        0.16947        0        
C2        C        0.59375        0.851852        0.16947        0        
C2        C        0.65625        0.851852        0.16947        0        
C2        C        0.71875        0.851852        0.16947        0        
C2        C        0.78125        0.851852        0.16947        0        
C2        C        0.84375        0.851852        0.16947        0        
C2        C        0.9062500000000001        0.851852        0.16947        0        
C2        C        0.9687500000000001        0.851852        0.16947        0        
C3        C        0.0        0.87037        0.16947        0        
C3        C        0.0625        0.87037        0.16947        0        
C3        C        0.125        0.87037        0.16947        0        
C3        C        0.1875        0.87037        0.16947        0        
C3        C        0.25        0.87037        0.16947        0        
C3        C        0.3125        0.87037        0.16947        0        
C3        C        0.375        0.87037        0.16947        0        
C3        C        0.4375        0.87037        0.16947        0        
C3        C        0.5        0.87037        0.16947        0        
C3        C        0.5625        0.87037        0.16947        0        
C3        C        0.625        0.87037        0.16947        0        
C3        C        0.6875        0.87037        0.16947        0        
C3        C        0.75        0.87037        0.16947        0        
C3        C        0.8125        0.87037        0.16947        0        
C3        C        0.875        0.87037        0.16947        0        
C3        C        0.9375        0.87037        0.16947        0        
C4        C        0.03125        0.814814        0.16947        0        
C4        C        0.09375        0.814814        0.16947        0        
C4        C        0.15625        0.814814        0.16947        0        
C4        C        0.21875        0.814814        0.16947        0        
C4        C        0.28125        0.814814        0.16947        0        
C4        C        0.34375        0.814814        0.16947        0        
C4        C        0.40625        0.814814        0.16947        0        
C4        C        0.46875        0.814814        0.16947        0        
C4        C        0.53125        0.814814        0.16947        0        
C4        C        0.59375        0.814814        0.16947        0        
C4        C        0.65625        0.814814        0.16947        0        
C4        C        0.71875        0.814814        0.16947        0        
C4        C        0.78125        0.814814        0.16947        0        
C4        C        0.84375        0.814814        0.16947        0        
C4        C        0.9062500000000001        0.814814        0.16947        0        
C4        C        0.9687500000000001        0.814814        0.16947        0        
C_FG        C        0.0        0.907408        0.16947        0.08        
C1        C        0.0625        0.907408        0.16947        0        
C1        C        0.125        0.907408        0.16947        0        
C1        C        0.1875        0.907408        0.16947        0        
C_FG        C        0.25        0.907408        0.16947        0.08        
C1        C        0.3125        0.907408        0.16947        0        
C1        C        0.375        0.907408        0.16947        0        
C1        C        0.4375        0.907408        0.16947        0        
C_FG        C        0.5        0.907408        0.16947        0.08        
C1        C        0.5625        0.907408        0.16947        0        
C1        C        0.625        0.907408        0.16947        0        
C1        C        0.6875        0.907408        0.16947        0        
C_FG        C        0.75        0.907408        0.16947        0.08        
C1        C        0.8125        0.907408        0.16947        0        
C1        C        0.875        0.907408        0.16947        0        
C1        C        0.9375        0.907408        0.16947        0        
C2        C        0.03125        0.962963        0.16947        0        
C2        C        0.09375        0.962963        0.16947        0        
C2        C        0.15625        0.962963        0.16947        0        
C2        C        0.21875        0.962963        0.16947        0        
C2        C        0.28125        0.962963        0.16947        0        
C2        C        0.34375        0.962963        0.16947        0        
C2        C        0.40625        0.962963        0.16947        0        
C2        C        0.46875        0.962963        0.16947        0        
C2        C        0.53125        0.962963        0.16947        0        
C2        C        0.59375        0.962963        0.16947        0        
C2        C        0.65625        0.962963        0.16947        0        
C2        C        0.71875        0.962963        0.16947        0        
C2        C        0.78125        0.962963        0.16947        0        
C2        C        0.84375        0.962963        0.16947        0        
C2        C        0.9062500000000001        0.962963        0.16947        0        
C2        C        0.9687500000000001        0.962963        0.16947        0        
C3        C        0.0        0.9814809999999999        0.16947        0        
C3        C        0.0625        0.9814809999999999        0.16947        0        
C3        C        0.125        0.9814809999999999        0.16947        0        
C3        C        0.1875        0.9814809999999999        0.16947        0        
C3        C        0.25        0.9814809999999999        0.16947        0        
C3        C        0.3125        0.9814809999999999        0.16947        0        
C3        C        0.375        0.9814809999999999        0.16947        0        
C3        C        0.4375        0.9814809999999999        0.16947        0        
C3        C        0.5        0.9814809999999999        0.16947        0        
C3        C        0.5625        0.9814809999999999        0.16947        0        
C3        C        0.625        0.9814809999999999        0.16947        0        
C3        C        0.6875        0.9814809999999999        0.16947        0        
C3        C        0.75        0.9814809999999999        0.16947        0        
C3        C        0.8125        0.9814809999999999        0.16947        0        
C3        C        0.875        0.9814809999999999        0.16947        0        
C3        C        0.9375        0.9814809999999999        0.16947        0        
C4        C        0.03125        0.925925        0.16947        0        
C4        C        0.09375        0.925925        0.16947        0        
C4        C        0.15625        0.925925        0.16947        0        
C4        C        0.21875        0.925925        0.16947        0        
C4        C        0.28125        0.925925        0.16947        0        
C4        C        0.34375        0.925925        0.16947        0        
C4        C        0.40625        0.925925        0.16947        0        
C4        C        0.46875        0.925925        0.16947        0        
C4        C        0.53125        0.925925        0.16947        0        
C4        C        0.59375        0.925925        0.16947        0        
C4        C        0.65625        0.925925        0.16947        0        
C4        C        0.71875        0.925925        0.16947        0        
C4        C        0.78125        0.925925        0.16947        0        
C4        C        0.84375        0.925925        0.16947        0        
C4        C        0.9062500000000001        0.925925        0.16947        0        
C4        C        0.9687500000000001        0.925925        0.16947        0        
C1        C        0.0        0.018519        0.4139955474452554        0        
C2        C        0.03125        0.074075        0.4139955474452554        0        
C3        C        0.0        0.092592        0.4139955474452554        0        
C4        C        0.03125        0.037037        0.4139955474452554        0        
C1        C        0.0        0.12963        0.4139955474452554        0        
C2        C        0.03125        0.185185        0.4139955474452554        0        
C3        C        0.0        0.203703        0.4139955474452554        0        
C4        C        0.03125        0.148148        0.4139955474452554        0        
C1        C        0.0        0.24074099999999998        0.4139955474452554        0        
C2        C        0.03125        0.296297        0.4139955474452554        0        
C3        C        0.0        0.314815        0.4139955474452554        0        
C4        C        0.03125        0.259259        0.4139955474452554        0        
C1        C        0.0        0.351852        0.4139955474452554        0        
C2        C        0.03125        0.407408        0.4139955474452554        0        
C3        C        0.0        0.425925        0.4139955474452554        0        
C4        C        0.03125        0.37037        0.4139955474452554        0        
C1        C        0.0        0.46296300000000007        0.4139955474452554        0        
C2        C        0.03125        0.518519        0.4139955474452554        0        
C3        C        0.0        0.537037        0.4139955474452554        0        
C4        C        0.03125        0.481481        0.4139955474452554        0        
C1        C        0.0        0.574075        0.4139955474452554        0        
C2        C        0.03125        0.62963        0.4139955474452554        0        
C3        C        0.0        0.648148        0.4139955474452554        0        
C4        C        0.03125        0.592592        0.4139955474452554        0        
C1        C        0.0625        0.018519        0.4139955474452554        0        
C2        C        0.09375        0.074075        0.4139955474452554        0        
C3        C        0.0625        0.092592        0.4139955474452554        0        
C4        C        0.09375        0.037037        0.4139955474452554        0        
C1        C        0.0625        0.12963        0.4139955474452554        0        
C2        C        0.09375        0.185185        0.4139955474452554        0        
C3        C        0.0625        0.203703        0.4139955474452554        0        
C4        C        0.09375        0.148148        0.4139955474452554        0        
C1        C        0.0625        0.24074099999999998        0.4139955474452554        0        
C2        C        0.09375        0.296297        0.4139955474452554        0        
C3        C        0.0625        0.314815        0.4139955474452554        0        
C4        C        0.09375        0.259259        0.4139955474452554        0        
C1        C        0.0625        0.351852        0.4139955474452554        0        
C2        C        0.09375        0.407408        0.4139955474452554        0        
C3        C        0.0625        0.425925        0.4139955474452554        0        
C4        C        0.09375        0.37037        0.4139955474452554        0        
C1        C        0.0625        0.46296300000000007        0.4139955474452554        0        
C2        C        0.09375        0.518519        0.4139955474452554        0        
C3        C        0.0625        0.537037        0.4139955474452554        0        
C4        C        0.09375        0.481481        0.4139955474452554        0        
C1        C        0.0625        0.574075        0.4139955474452554        0        
C2        C        0.09375        0.62963        0.4139955474452554        0        
C3        C        0.0625        0.648148        0.4139955474452554        0        
C4        C        0.09375        0.592592        0.4139955474452554        0        
C1        C        0.125        0.018519        0.4139955474452554        0        
C2        C        0.15625        0.074075        0.4139955474452554        0        
C3        C        0.125        0.092592        0.4139955474452554        0        
C4        C        0.15625        0.037037        0.4139955474452554        0        
C1        C        0.125        0.12963        0.4139955474452554        0        
C2        C        0.15625        0.185185        0.4139955474452554        0        
C3        C        0.125        0.203703        0.4139955474452554        0        
C4        C        0.15625        0.148148        0.4139955474452554        0        
C1        C        0.125        0.24074099999999998        0.4139955474452554        0        
C2        C        0.15625        0.296297        0.4139955474452554        0        
C3        C        0.125        0.314815        0.4139955474452554        0        
C4        C        0.15625        0.259259        0.4139955474452554        0        
C1        C        0.125        0.351852        0.4139955474452554        0        
C2        C        0.15625        0.407408        0.4139955474452554        0        
C3        C        0.125        0.425925        0.4139955474452554        0        
C4        C        0.15625        0.37037        0.4139955474452554        0        
C1        C        0.125        0.46296300000000007        0.4139955474452554        0        
C2        C        0.15625        0.518519        0.4139955474452554        0        
C3        C        0.125        0.537037        0.4139955474452554        0        
C4        C        0.15625        0.481481        0.4139955474452554        0        
C1        C        0.125        0.574075        0.4139955474452554        0        
C2        C        0.15625        0.62963        0.4139955474452554        0        
C3        C        0.125        0.648148        0.4139955474452554        0        
C4        C        0.15625        0.592592        0.4139955474452554        0        
C1        C        0.1875        0.018519        0.4139955474452554        0        
C2        C        0.21875        0.074075        0.4139955474452554        0        
C3        C        0.1875        0.092592        0.4139955474452554        0        
C4        C        0.21875        0.037037        0.4139955474452554        0        
C1        C        0.1875        0.12963        0.4139955474452554        0        
C2        C        0.21875        0.185185        0.4139955474452554        0        
C3        C        0.1875        0.203703        0.4139955474452554        0        
C4        C        0.21875        0.148148        0.4139955474452554        0        
C1        C        0.1875        0.24074099999999998        0.4139955474452554        0        
C2        C        0.21875        0.296297        0.4139955474452554        0        
C3        C        0.1875        0.314815        0.4139955474452554        0        
C4        C        0.21875        0.259259        0.4139955474452554        0        
C1        C        0.1875        0.351852        0.4139955474452554        0        
C2        C        0.21875        0.407408        0.4139955474452554        0        
C3        C        0.1875        0.425925        0.4139955474452554        0        
C4        C        0.21875        0.37037        0.4139955474452554        0        
C1        C        0.1875        0.46296300000000007        0.4139955474452554        0        
C2        C        0.21875        0.518519        0.4139955474452554        0        
C3        C        0.1875        0.537037        0.4139955474452554        0        
C4        C        0.21875        0.481481        0.4139955474452554        0        
C1        C        0.1875        0.574075        0.4139955474452554        0        
C2        C        0.21875        0.62963        0.4139955474452554        0        
C3        C        0.1875        0.648148        0.4139955474452554        0        
C4        C        0.21875        0.592592        0.4139955474452554        0        
C1        C        0.25        0.018519        0.4139955474452554        0        
C2        C        0.28125        0.074075        0.4139955474452554        0        
C3        C        0.25        0.092592        0.4139955474452554        0        
C4        C        0.28125        0.037037        0.4139955474452554        0        
C1        C        0.25        0.12963        0.4139955474452554        0        
C2        C        0.28125        0.185185        0.4139955474452554        0        
C3        C        0.25        0.203703        0.4139955474452554        0        
C4        C        0.28125        0.148148        0.4139955474452554        0        
C1        C        0.25        0.24074099999999998        0.4139955474452554        0        
C2        C        0.28125        0.296297        0.4139955474452554        0        
C3        C        0.25        0.314815        0.4139955474452554        0        
C4        C        0.28125        0.259259        0.4139955474452554        0        
C1        C        0.25        0.351852        0.4139955474452554        0        
C2        C        0.28125        0.407408        0.4139955474452554        0        
C3        C        0.25        0.425925        0.4139955474452554        0        
C4        C        0.28125        0.37037        0.4139955474452554        0        
C1        C        0.25        0.46296300000000007        0.4139955474452554        0        
C2        C        0.28125        0.518519        0.4139955474452554        0        
C3        C        0.25        0.537037        0.4139955474452554        0        
C4        C        0.28125        0.481481        0.4139955474452554        0        
C1        C        0.25        0.574075        0.4139955474452554        0        
C2        C        0.28125        0.62963        0.4139955474452554        0        
C3        C        0.25        0.648148        0.4139955474452554        0        
C4        C        0.28125        0.592592        0.4139955474452554        0        
C1        C        0.3125        0.018519        0.4139955474452554        0        
C2        C        0.34375        0.074075        0.4139955474452554        0        
C3        C        0.3125        0.092592        0.4139955474452554        0        
C4        C        0.34375        0.037037        0.4139955474452554        0        
C1        C        0.3125        0.12963        0.4139955474452554        0        
C2        C        0.34375        0.185185        0.4139955474452554        0        
C3        C        0.3125        0.203703        0.4139955474452554        0        
C4        C        0.34375        0.148148        0.4139955474452554        0        
C1        C        0.3125        0.24074099999999998        0.4139955474452554        0        
C2        C        0.34375        0.296297        0.4139955474452554        0        
C3        C        0.3125        0.314815        0.4139955474452554        0        
C4        C        0.34375        0.259259        0.4139955474452554        0        
C1        C        0.3125        0.351852        0.4139955474452554        0        
C2        C        0.34375        0.407408        0.4139955474452554        0        
C3        C        0.3125        0.425925        0.4139955474452554        0        
C4        C        0.34375        0.37037        0.4139955474452554        0        
C1        C        0.3125        0.46296300000000007        0.4139955474452554        0        
C2        C        0.34375        0.518519        0.4139955474452554        0        
C3        C        0.3125        0.537037        0.4139955474452554        0        
C4        C        0.34375        0.481481        0.4139955474452554        0        
C1        C        0.3125        0.574075        0.4139955474452554        0        
C2        C        0.34375        0.62963        0.4139955474452554        0        
C3        C        0.3125        0.648148        0.4139955474452554        0        
C4        C        0.34375        0.592592        0.4139955474452554        0        
C1        C        0.375        0.018519        0.4139955474452554        0        
C2        C        0.40625        0.074075        0.4139955474452554        0        
C3        C        0.375        0.092592        0.4139955474452554        0        
C4        C        0.40625        0.037037        0.4139955474452554        0        
C1        C        0.375        0.12963        0.4139955474452554        0        
C2        C        0.40625        0.185185        0.4139955474452554        0        
C3        C        0.375        0.203703        0.4139955474452554        0        
C4        C        0.40625        0.148148        0.4139955474452554        0        
C1        C        0.375        0.24074099999999998        0.4139955474452554        0        
C2        C        0.40625        0.296297        0.4139955474452554        0        
C3        C        0.375        0.314815        0.4139955474452554        0        
C4        C        0.40625        0.259259        0.4139955474452554        0        
C1        C        0.375        0.351852        0.4139955474452554        0        
C2        C        0.40625        0.407408        0.4139955474452554        0        
C3        C        0.375        0.425925        0.4139955474452554        0        
C4        C        0.40625        0.37037        0.4139955474452554        0        
C1        C        0.375        0.46296300000000007        0.4139955474452554        0        
C2        C        0.40625        0.518519        0.4139955474452554        0        
C3        C        0.375        0.537037        0.4139955474452554        0        
C4        C        0.40625        0.481481        0.4139955474452554        0        
C1        C        0.375        0.574075        0.4139955474452554        0        
C2        C        0.40625        0.62963        0.4139955474452554        0        
C3        C        0.375        0.648148        0.4139955474452554        0        
C4        C        0.40625        0.592592        0.4139955474452554        0        
C1        C        0.4375        0.018519        0.4139955474452554        0        
C2        C        0.46875        0.074075        0.4139955474452554        0        
C3        C        0.4375        0.092592        0.4139955474452554        0        
C4        C        0.46875        0.037037        0.4139955474452554        0        
C1        C        0.4375        0.12963        0.4139955474452554        0        
C2        C        0.46875        0.185185        0.4139955474452554        0        
C3        C        0.4375        0.203703        0.4139955474452554        0        
C4        C        0.46875        0.148148        0.4139955474452554        0        
C1        C        0.4375        0.24074099999999998        0.4139955474452554        0        
C2        C        0.46875        0.296297        0.4139955474452554        0        
C3        C        0.4375        0.314815        0.4139955474452554        0        
C4        C        0.46875        0.259259        0.4139955474452554        0        
C1        C        0.4375        0.351852        0.4139955474452554        0        
C2        C        0.46875        0.407408        0.4139955474452554        0        
C3        C        0.4375        0.425925        0.4139955474452554        0        
C4        C        0.46875        0.37037        0.4139955474452554        0        
C1        C        0.4375        0.46296300000000007        0.4139955474452554        0        
C2        C        0.46875        0.518519        0.4139955474452554        0        
C3        C        0.4375        0.537037        0.4139955474452554        0        
C4        C        0.46875        0.481481        0.4139955474452554        0        
C1        C        0.4375        0.574075        0.4139955474452554        0        
C2        C        0.46875        0.62963        0.4139955474452554        0        
C3        C        0.4375        0.648148        0.4139955474452554        0        
C4        C        0.46875        0.592592        0.4139955474452554        0        
C1        C        0.5        0.018519        0.4139955474452554        0        
C2        C        0.53125        0.074075        0.4139955474452554        0        
C3        C        0.5        0.092592        0.4139955474452554        0        
C4        C        0.53125        0.037037        0.4139955474452554        0        
C1        C        0.5        0.12963        0.4139955474452554        0        
C2        C        0.53125        0.185185        0.4139955474452554        0        
C3        C        0.5        0.203703        0.4139955474452554        0        
C4        C        0.53125        0.148148        0.4139955474452554        0        
C1        C        0.5        0.24074099999999998        0.4139955474452554        0        
C2        C        0.53125        0.296297        0.4139955474452554        0        
C3        C        0.5        0.314815        0.4139955474452554        0        
C4        C        0.53125        0.259259        0.4139955474452554        0        
C1        C        0.5        0.351852        0.4139955474452554        0        
C2        C        0.53125        0.407408        0.4139955474452554        0        
C3        C        0.5        0.425925        0.4139955474452554        0        
C4        C        0.53125        0.37037        0.4139955474452554        0        
C1        C        0.5        0.46296300000000007        0.4139955474452554        0        
C2        C        0.53125        0.518519        0.4139955474452554        0        
C3        C        0.5        0.537037        0.4139955474452554        0        
C4        C        0.53125        0.481481        0.4139955474452554        0        
C1        C        0.5        0.574075        0.4139955474452554        0        
C2        C        0.53125        0.62963        0.4139955474452554        0        
C3        C        0.5        0.648148        0.4139955474452554        0        
C4        C        0.53125        0.592592        0.4139955474452554        0        
C1        C        0.5625        0.018519        0.4139955474452554        0        
C2        C        0.59375        0.074075        0.4139955474452554        0        
C3        C        0.5625        0.092592        0.4139955474452554        0        
C4        C        0.59375        0.037037        0.4139955474452554        0        
C1        C        0.5625        0.12963        0.4139955474452554        0        
C2        C        0.59375        0.185185        0.4139955474452554        0        
C3        C        0.5625        0.203703        0.4139955474452554        0        
C4        C        0.59375        0.148148        0.4139955474452554        0        
C1        C        0.5625        0.24074099999999998        0.4139955474452554        0        
C2        C        0.59375        0.296297        0.4139955474452554        0        
C3        C        0.5625        0.314815        0.4139955474452554        0        
C4        C        0.59375        0.259259        0.4139955474452554        0        
C1        C        0.5625        0.351852        0.4139955474452554        0        
C2        C        0.59375        0.407408        0.4139955474452554        0        
C3        C        0.5625        0.425925        0.4139955474452554        0        
C4        C        0.59375        0.37037        0.4139955474452554        0        
C1        C        0.5625        0.46296300000000007        0.4139955474452554        0        
C2        C        0.59375        0.518519        0.4139955474452554        0        
C3        C        0.5625        0.537037        0.4139955474452554        0        
C4        C        0.59375        0.481481        0.4139955474452554        0        
C1        C        0.5625        0.574075        0.4139955474452554        0        
C2        C        0.59375        0.62963        0.4139955474452554        0        
C3        C        0.5625        0.648148        0.4139955474452554        0        
C4        C        0.59375        0.592592        0.4139955474452554        0        
C1        C        0.625        0.018519        0.4139955474452554        0        
C2        C        0.65625        0.074075        0.4139955474452554        0        
C3        C        0.625        0.092592        0.4139955474452554        0        
C4        C        0.65625        0.037037        0.4139955474452554        0        
C1        C        0.625        0.12963        0.4139955474452554        0        
C2        C        0.65625        0.185185        0.4139955474452554        0        
C3        C        0.625        0.203703        0.4139955474452554        0        
C4        C        0.65625        0.148148        0.4139955474452554        0        
C1        C        0.625        0.24074099999999998        0.4139955474452554        0        
C2        C        0.65625        0.296297        0.4139955474452554        0        
C3        C        0.625        0.314815        0.4139955474452554        0        
C4        C        0.65625        0.259259        0.4139955474452554        0        
C1        C        0.625        0.351852        0.4139955474452554        0        
C2        C        0.65625        0.407408        0.4139955474452554        0        
C3        C        0.625        0.425925        0.4139955474452554        0        
C4        C        0.65625        0.37037        0.4139955474452554        0        
C1        C        0.625        0.46296300000000007        0.4139955474452554        0        
C2        C        0.65625        0.518519        0.4139955474452554        0        
C3        C        0.625        0.537037        0.4139955474452554        0        
C4        C        0.65625        0.481481        0.4139955474452554        0        
C1        C        0.625        0.574075        0.4139955474452554        0        
C2        C        0.65625        0.62963        0.4139955474452554        0        
C3        C        0.625        0.648148        0.4139955474452554        0        
C4        C        0.65625        0.592592        0.4139955474452554        0        
C1        C        0.6875        0.018519        0.4139955474452554        0        
C2        C        0.71875        0.074075        0.4139955474452554        0        
C3        C        0.6875        0.092592        0.4139955474452554        0        
C4        C        0.71875        0.037037        0.4139955474452554        0        
C1        C        0.6875        0.12963        0.4139955474452554        0        
C2        C        0.71875        0.185185        0.4139955474452554        0        
C3        C        0.6875        0.203703        0.4139955474452554        0        
C4        C        0.71875        0.148148        0.4139955474452554        0        
C1        C        0.6875        0.24074099999999998        0.4139955474452554        0        
C2        C        0.71875        0.296297        0.4139955474452554        0        
C3        C        0.6875        0.314815        0.4139955474452554        0        
C4        C        0.71875        0.259259        0.4139955474452554        0        
C1        C        0.6875        0.351852        0.4139955474452554        0        
C2        C        0.71875        0.407408        0.4139955474452554        0        
C3        C        0.6875        0.425925        0.4139955474452554        0        
C4        C        0.71875        0.37037        0.4139955474452554        0        
C1        C        0.6875        0.46296300000000007        0.4139955474452554        0        
C2        C        0.71875        0.518519        0.4139955474452554        0        
C3        C        0.6875        0.537037        0.4139955474452554        0        
C4        C        0.71875        0.481481        0.4139955474452554        0        
C1        C        0.6875        0.574075        0.4139955474452554        0        
C2        C        0.71875        0.62963        0.4139955474452554        0        
C3        C        0.6875        0.648148        0.4139955474452554        0        
C4        C        0.71875        0.592592        0.4139955474452554        0        
C1        C        0.75        0.018519        0.4139955474452554        0        
C2        C        0.78125        0.074075        0.4139955474452554        0        
C3        C        0.75        0.092592        0.4139955474452554        0        
C4        C        0.78125        0.037037        0.4139955474452554        0        
C1        C        0.75        0.12963        0.4139955474452554        0        
C2        C        0.78125        0.185185        0.4139955474452554        0        
C3        C        0.75        0.203703        0.4139955474452554        0        
C4        C        0.78125        0.148148        0.4139955474452554        0        
C1        C        0.75        0.24074099999999998        0.4139955474452554        0        
C2        C        0.78125        0.296297        0.4139955474452554        0        
C3        C        0.75        0.314815        0.4139955474452554        0        
C4        C        0.78125        0.259259        0.4139955474452554        0        
C1        C        0.75        0.351852        0.4139955474452554        0        
C2        C        0.78125        0.407408        0.4139955474452554        0        
C3        C        0.75        0.425925        0.4139955474452554        0        
C4        C        0.78125        0.37037        0.4139955474452554        0        
C1        C        0.75        0.46296300000000007        0.4139955474452554        0        
C2        C        0.78125        0.518519        0.4139955474452554        0        
C3        C        0.75        0.537037        0.4139955474452554        0        
C4        C        0.78125        0.481481        0.4139955474452554        0        
C1        C        0.75        0.574075        0.4139955474452554        0        
C2        C        0.78125        0.62963        0.4139955474452554        0        
C3        C        0.75        0.648148        0.4139955474452554        0        
C4        C        0.78125        0.592592        0.4139955474452554        0        
C1        C        0.8125        0.018519        0.4139955474452554        0        
C2        C        0.84375        0.074075        0.4139955474452554        0        
C3        C        0.8125        0.092592        0.4139955474452554        0        
C4        C        0.84375        0.037037        0.4139955474452554        0        
C1        C        0.8125        0.12963        0.4139955474452554        0        
C2        C        0.84375        0.185185        0.4139955474452554        0        
C3        C        0.8125        0.203703        0.4139955474452554        0        
C4        C        0.84375        0.148148        0.4139955474452554        0        
C1        C        0.8125        0.24074099999999998        0.4139955474452554        0        
C2        C        0.84375        0.296297        0.4139955474452554        0        
C3        C        0.8125        0.314815        0.4139955474452554        0        
C4        C        0.84375        0.259259        0.4139955474452554        0        
C1        C        0.8125        0.351852        0.4139955474452554        0        
C2        C        0.84375        0.407408        0.4139955474452554        0        
C3        C        0.8125        0.425925        0.4139955474452554        0        
C4        C        0.84375        0.37037        0.4139955474452554        0        
C1        C        0.8125        0.46296300000000007        0.4139955474452554        0        
C2        C        0.84375        0.518519        0.4139955474452554        0        
C3        C        0.8125        0.537037        0.4139955474452554        0        
C4        C        0.84375        0.481481        0.4139955474452554        0        
C1        C        0.8125        0.574075        0.4139955474452554        0        
C2        C        0.84375        0.62963        0.4139955474452554        0        
C3        C        0.8125        0.648148        0.4139955474452554        0        
C4        C        0.84375        0.592592        0.4139955474452554        0        
C1        C        0.875        0.018519        0.4139955474452554        0        
C2        C        0.9062500000000001        0.074075        0.4139955474452554        0        
C3        C        0.875        0.092592        0.4139955474452554        0        
C4        C        0.9062500000000001        0.037037        0.4139955474452554        0        
C1        C        0.875        0.12963        0.4139955474452554        0        
C2        C        0.9062500000000001        0.185185        0.4139955474452554        0        
C3        C        0.875        0.203703        0.4139955474452554        0        
C4        C        0.9062500000000001        0.148148        0.4139955474452554        0        
C1        C        0.875        0.24074099999999998        0.4139955474452554        0        
C2        C        0.9062500000000001        0.296297        0.4139955474452554        0        
C3        C        0.875        0.314815        0.4139955474452554        0        
C4        C        0.9062500000000001        0.259259        0.4139955474452554        0        
C1        C        0.875        0.351852        0.4139955474452554        0        
C2        C        0.9062500000000001        0.407408        0.4139955474452554        0        
C3        C        0.875        0.425925        0.4139955474452554        0        
C4        C        0.9062500000000001        0.37037        0.4139955474452554        0        
C1        C        0.875        0.46296300000000007        0.4139955474452554        0        
C2        C        0.9062500000000001        0.518519        0.4139955474452554        0        
C3        C        0.875        0.537037        0.4139955474452554        0        
C4        C        0.9062500000000001        0.481481        0.4139955474452554        0        
C1        C        0.875        0.574075        0.4139955474452554        0        
C2        C        0.9062500000000001        0.62963        0.4139955474452554        0        
C3        C        0.875        0.648148        0.4139955474452554        0        
C4        C        0.9062500000000001        0.592592        0.4139955474452554        0        
C1        C        0.9375        0.018519        0.4139955474452554        0        
C2        C        0.9687500000000001        0.074075        0.4139955474452554        0        
C3        C        0.9375        0.092592        0.4139955474452554        0        
C4        C        0.9687500000000001        0.037037        0.4139955474452554        0        
C1        C        0.9375        0.12963        0.4139955474452554        0        
C2        C        0.9687500000000001        0.185185        0.4139955474452554        0        
C3        C        0.9375        0.203703        0.4139955474452554        0        
C4        C        0.9687500000000001        0.148148        0.4139955474452554        0        
C1        C        0.9375        0.24074099999999998        0.4139955474452554        0        
C2        C        0.9687500000000001        0.296297        0.4139955474452554        0        
C3        C        0.9375        0.314815        0.4139955474452554        0        
C4        C        0.9687500000000001        0.259259        0.4139955474452554        0        
C1        C        0.9375        0.351852        0.4139955474452554        0        
C2        C        0.9687500000000001        0.407408        0.4139955474452554        0        
C3        C        0.9375        0.425925        0.4139955474452554        0        
C4        C        0.9687500000000001        0.37037        0.4139955474452554        0        
C1        C        0.9375        0.46296300000000007        0.4139955474452554        0        
C2        C        0.9687500000000001        0.518519        0.4139955474452554        0        
C3        C        0.9375        0.537037        0.4139955474452554        0        
C4        C        0.9687500000000001        0.481481        0.4139955474452554        0        
C1        C        0.9375        0.574075        0.4139955474452554        0        
C2        C        0.9687500000000001        0.62963        0.4139955474452554        0        
C3        C        0.9375        0.648148        0.4139955474452554        0        
C4        C        0.9687500000000001        0.592592        0.4139955474452554        0        
C1        C        0.0        0.685186        0.4139955474452554        0        
C1        C        0.0625        0.685186        0.4139955474452554        0        
C1        C        0.125        0.685186        0.4139955474452554        0        
C1        C        0.1875        0.685186        0.4139955474452554        0        
C1        C        0.25        0.685186        0.4139955474452554        0        
C1        C        0.3125        0.685186        0.4139955474452554        0        
C1        C        0.375        0.685186        0.4139955474452554        0        
C1        C        0.4375        0.685186        0.4139955474452554        0        
C1        C        0.5        0.685186        0.4139955474452554        0        
C1        C        0.5625        0.685186        0.4139955474452554        0        
C1        C        0.625        0.685186        0.4139955474452554        0        
C1        C        0.6875        0.685186        0.4139955474452554        0        
C1        C        0.75        0.685186        0.4139955474452554        0        
C1        C        0.8125        0.685186        0.4139955474452554        0        
C1        C        0.875        0.685186        0.4139955474452554        0        
C1        C        0.9375        0.685186        0.4139955474452554        0        
C2        C        0.03125        0.740741        0.4139955474452554        0        
C2        C        0.09375        0.740741        0.4139955474452554        0        
C2        C        0.15625        0.740741        0.4139955474452554        0        
C2        C        0.21875        0.740741        0.4139955474452554        0        
C2        C        0.28125        0.740741        0.4139955474452554        0        
C2        C        0.34375        0.740741        0.4139955474452554        0        
C2        C        0.40625        0.740741        0.4139955474452554        0        
C2        C        0.46875        0.740741        0.4139955474452554        0        
C2        C        0.53125        0.740741        0.4139955474452554        0        
C2        C        0.59375        0.740741        0.4139955474452554        0        
C2        C        0.65625        0.740741        0.4139955474452554        0        
C2        C        0.71875        0.740741        0.4139955474452554        0        
C2        C        0.78125        0.740741        0.4139955474452554        0        
C2        C        0.84375        0.740741        0.4139955474452554        0        
C2        C        0.9062500000000001        0.740741        0.4139955474452554        0        
C2        C        0.9687500000000001        0.740741        0.4139955474452554        0        
C3        C        0.0        0.759259        0.4139955474452554        0        
C3        C        0.0625        0.759259        0.4139955474452554        0        
C3        C        0.125        0.759259        0.4139955474452554        0        
C3        C        0.1875        0.759259        0.4139955474452554        0        
C3        C        0.25        0.759259        0.4139955474452554        0        
C3        C        0.3125        0.759259        0.4139955474452554        0        
C3        C        0.375        0.759259        0.4139955474452554        0        
C3        C        0.4375        0.759259        0.4139955474452554        0        
C3        C        0.5        0.759259        0.4139955474452554        0        
C3        C        0.5625        0.759259        0.4139955474452554        0        
C3        C        0.625        0.759259        0.4139955474452554        0        
C3        C        0.6875        0.759259        0.4139955474452554        0        
C3        C        0.75        0.759259        0.4139955474452554        0        
C3        C        0.8125        0.759259        0.4139955474452554        0        
C3        C        0.875        0.759259        0.4139955474452554        0        
C3        C        0.9375        0.759259        0.4139955474452554        0        
C4        C        0.03125        0.703703        0.4139955474452554        0        
C4        C        0.09375        0.703703        0.4139955474452554        0        
C4        C        0.15625        0.703703        0.4139955474452554        0        
C4        C        0.21875        0.703703        0.4139955474452554        0        
C4        C        0.28125        0.703703        0.4139955474452554        0        
C4        C        0.34375        0.703703        0.4139955474452554        0        
C4        C        0.40625        0.703703        0.4139955474452554        0        
C4        C        0.46875        0.703703        0.4139955474452554        0        
C4        C        0.53125        0.703703        0.4139955474452554        0        
C4        C        0.59375        0.703703        0.4139955474452554        0        
C4        C        0.65625        0.703703        0.4139955474452554        0        
C4        C        0.71875        0.703703        0.4139955474452554        0        
C4        C        0.78125        0.703703        0.4139955474452554        0        
C4        C        0.84375        0.703703        0.4139955474452554        0        
C4        C        0.9062500000000001        0.703703        0.4139955474452554        0        
C4        C        0.9687500000000001        0.703703        0.4139955474452554        0        
C1        C        0.0        0.796297        0.4139955474452554        0        
C1        C        0.0625        0.796297        0.4139955474452554        0        
C1        C        0.125        0.796297        0.4139955474452554        0        
C1        C        0.1875        0.796297        0.4139955474452554        0        
C1        C        0.25        0.796297        0.4139955474452554        0        
C1        C        0.3125        0.796297        0.4139955474452554        0        
C1        C        0.375        0.796297        0.4139955474452554        0        
C1        C        0.4375        0.796297        0.4139955474452554        0        
C1        C        0.5        0.796297        0.4139955474452554        0        
C1        C        0.5625        0.796297        0.4139955474452554        0        
C1        C        0.625        0.796297        0.4139955474452554        0        
C1        C        0.6875        0.796297        0.4139955474452554        0        
C1        C        0.75        0.796297        0.4139955474452554        0        
C1        C        0.8125        0.796297        0.4139955474452554        0        
C1        C        0.875        0.796297        0.4139955474452554        0        
C1        C        0.9375        0.796297        0.4139955474452554        0        
C2        C        0.03125        0.851852        0.4139955474452554        0        
C2        C        0.09375        0.851852        0.4139955474452554        0        
C2        C        0.15625        0.851852        0.4139955474452554        0        
C2        C        0.21875        0.851852        0.4139955474452554        0        
C2        C        0.28125        0.851852        0.4139955474452554        0        
C2        C        0.34375        0.851852        0.4139955474452554        0        
C2        C        0.40625        0.851852        0.4139955474452554        0        
C2        C        0.46875        0.851852        0.4139955474452554        0        
C2        C        0.53125        0.851852        0.4139955474452554        0        
C2        C        0.59375        0.851852        0.4139955474452554        0        
C2        C        0.65625        0.851852        0.4139955474452554        0        
C2        C        0.71875        0.851852        0.4139955474452554        0        
C2        C        0.78125        0.851852        0.4139955474452554        0        
C2        C        0.84375        0.851852        0.4139955474452554        0        
C2        C        0.9062500000000001        0.851852        0.4139955474452554        0        
C2        C        0.9687500000000001        0.851852        0.4139955474452554        0        
C3        C        0.0        0.87037        0.4139955474452554        0        
C3        C        0.0625        0.87037        0.4139955474452554        0        
C3        C        0.125        0.87037        0.4139955474452554        0        
C3        C        0.1875        0.87037        0.4139955474452554        0        
C3        C        0.25        0.87037        0.4139955474452554        0        
C3        C        0.3125        0.87037        0.4139955474452554        0        
C3        C        0.375        0.87037        0.4139955474452554        0        
C3        C        0.4375        0.87037        0.4139955474452554        0        
C3        C        0.5        0.87037        0.4139955474452554        0        
C3        C        0.5625        0.87037        0.4139955474452554        0        
C3        C        0.625        0.87037        0.4139955474452554        0        
C3        C        0.6875        0.87037        0.4139955474452554        0        
C3        C        0.75        0.87037        0.4139955474452554        0        
C3        C        0.8125        0.87037        0.4139955474452554        0        
C3        C        0.875        0.87037        0.4139955474452554        0        
C3        C        0.9375        0.87037        0.4139955474452554        0        
C4        C        0.03125        0.814814        0.4139955474452554        0        
C4        C        0.09375        0.814814        0.4139955474452554        0        
C4        C        0.15625        0.814814        0.4139955474452554        0        
C4        C        0.21875        0.814814        0.4139955474452554        0        
C4        C        0.28125        0.814814        0.4139955474452554        0        
C4        C        0.34375        0.814814        0.4139955474452554        0        
C4        C        0.40625        0.814814        0.4139955474452554        0        
C4        C        0.46875        0.814814        0.4139955474452554        0        
C4        C        0.53125        0.814814        0.4139955474452554        0        
C4        C        0.59375        0.814814        0.4139955474452554        0        
C4        C        0.65625        0.814814        0.4139955474452554        0        
C4        C        0.71875        0.814814        0.4139955474452554        0        
C4        C        0.78125        0.814814        0.4139955474452554        0        
C4        C        0.84375        0.814814        0.4139955474452554        0        
C4        C        0.9062500000000001        0.814814        0.4139955474452554        0        
C4        C        0.9687500000000001        0.814814        0.4139955474452554        0        
C1        C        0.0        0.907408        0.4139955474452554        0        
C1        C        0.0625        0.907408        0.4139955474452554        0        
C1        C        0.125        0.907408        0.4139955474452554        0        
C1        C        0.1875        0.907408        0.4139955474452554        0        
C1        C        0.25        0.907408        0.4139955474452554        0        
C1        C        0.3125        0.907408        0.4139955474452554        0        
C1        C        0.375        0.907408        0.4139955474452554        0        
C1        C        0.4375        0.907408        0.4139955474452554        0        
C1        C        0.5        0.907408        0.4139955474452554        0        
C1        C        0.5625        0.907408        0.4139955474452554        0        
C1        C        0.625        0.907408        0.4139955474452554        0        
C1        C        0.6875        0.907408        0.4139955474452554        0        
C1        C        0.75        0.907408        0.4139955474452554        0        
C1        C        0.8125        0.907408        0.4139955474452554        0        
C1        C        0.875        0.907408        0.4139955474452554        0        
C1        C        0.9375        0.907408        0.4139955474452554        0        
C2        C        0.03125        0.962963        0.4139955474452554        0        
C2        C        0.09375        0.962963        0.4139955474452554        0        
C2        C        0.15625        0.962963        0.4139955474452554        0        
C2        C        0.21875        0.962963        0.4139955474452554        0        
C2        C        0.28125        0.962963        0.4139955474452554        0        
C2        C        0.34375        0.962963        0.4139955474452554        0        
C2        C        0.40625        0.962963        0.4139955474452554        0        
C2        C        0.46875        0.962963        0.4139955474452554        0        
C2        C        0.53125        0.962963        0.4139955474452554        0        
C2        C        0.59375        0.962963        0.4139955474452554        0        
C2        C        0.65625        0.962963        0.4139955474452554        0        
C2        C        0.71875        0.962963        0.4139955474452554        0        
C2        C        0.78125        0.962963        0.4139955474452554        0        
C2        C        0.84375        0.962963        0.4139955474452554        0        
C2        C        0.9062500000000001        0.962963        0.4139955474452554        0        
C2        C        0.9687500000000001        0.962963        0.4139955474452554        0        
C3        C        0.0        0.9814809999999999        0.4139955474452554        0        
C3        C        0.0625        0.9814809999999999        0.4139955474452554        0        
C3        C        0.125        0.9814809999999999        0.4139955474452554        0        
C3        C        0.1875        0.9814809999999999        0.4139955474452554        0        
C3        C        0.25        0.9814809999999999        0.4139955474452554        0        
C3        C        0.3125        0.9814809999999999        0.4139955474452554        0        
C3        C        0.375        0.9814809999999999        0.4139955474452554        0        
C3        C        0.4375        0.9814809999999999        0.4139955474452554        0        
C3        C        0.5        0.9814809999999999        0.4139955474452554        0        
C3        C        0.5625        0.9814809999999999        0.4139955474452554        0        
C3        C        0.625        0.9814809999999999        0.4139955474452554        0        
C3        C        0.6875        0.9814809999999999        0.4139955474452554        0        
C3        C        0.75        0.9814809999999999        0.4139955474452554        0        
C3        C        0.8125        0.9814809999999999        0.4139955474452554        0        
C3        C        0.875        0.9814809999999999        0.4139955474452554        0        
C3        C        0.9375        0.9814809999999999        0.4139955474452554        0        
C4        C        0.03125        0.925925        0.4139955474452554        0        
C4        C        0.09375        0.925925        0.4139955474452554        0        
C4        C        0.15625        0.925925        0.4139955474452554        0        
C4        C        0.21875        0.925925        0.4139955474452554        0        
C4        C        0.28125        0.925925        0.4139955474452554        0        
C4        C        0.34375        0.925925        0.4139955474452554        0        
C4        C        0.40625        0.925925        0.4139955474452554        0        
C4        C        0.46875        0.925925        0.4139955474452554        0        
C4        C        0.53125        0.925925        0.4139955474452554        0        
C4        C        0.59375        0.925925        0.4139955474452554        0        
C4        C        0.65625        0.925925        0.4139955474452554        0        
C4        C        0.71875        0.925925        0.4139955474452554        0        
C4        C        0.78125        0.925925        0.4139955474452554        0        
C4        C        0.84375        0.925925        0.4139955474452554        0        
C4        C        0.9062500000000001        0.925925        0.4139955474452554        0        
C4        C        0.9687500000000001        0.925925        0.4139955474452554        0        
C_FG        C        0.0        0.018519        0.658521094890511        0.08        
C2        C        0.03125        0.074075        0.658521094890511        0        
C3        C        0.0        0.092592        0.658521094890511        0        
C4        C        0.03125        0.037037        0.658521094890511        0        
C_FG        C        0.0        0.12963        0.658521094890511        0.08        
C2        C        0.03125        0.185185        0.658521094890511        0        
C3        C        0.0        0.203703        0.658521094890511        0        
C4        C        0.03125        0.148148        0.658521094890511        0        
C_FG        C        0.0        0.24074099999999998        0.658521094890511        0.08        
C2        C        0.03125        0.296297        0.658521094890511        0        
C3        C        0.0        0.314815        0.658521094890511        0        
C4        C        0.03125        0.259259        0.658521094890511        0        
C_FG        C        0.0        0.351852        0.658521094890511        0.08        
C2        C        0.03125        0.407408        0.658521094890511        0        
C3        C        0.0        0.425925        0.658521094890511        0        
C4        C        0.03125        0.37037        0.658521094890511        0        
C_FG        C        0.0        0.46296300000000007        0.658521094890511        0.08        
C2        C        0.03125        0.518519        0.658521094890511        0        
C3        C        0.0        0.537037        0.658521094890511        0        
C4        C        0.03125        0.481481        0.658521094890511        0        
C_FG        C        0.0        0.574075        0.658521094890511        0.08        
C2        C        0.03125        0.62963        0.658521094890511        0        
C3        C        0.0        0.648148        0.658521094890511        0        
C4        C        0.03125        0.592592        0.658521094890511        0        
C1        C        0.0625        0.018519        0.658521094890511        0        
C2        C        0.09375        0.074075        0.658521094890511        0        
C3        C        0.0625        0.092592        0.658521094890511        0        
C4        C        0.09375        0.037037        0.658521094890511        0        
C1        C        0.0625        0.12963        0.658521094890511        0        
C2        C        0.09375        0.185185        0.658521094890511        0        
C3        C        0.0625        0.203703        0.658521094890511        0        
C4        C        0.09375        0.148148        0.658521094890511        0        
C1        C        0.0625        0.24074099999999998        0.658521094890511        0        
C2        C        0.09375        0.296297        0.658521094890511        0        
C3        C        0.0625        0.314815        0.658521094890511        0        
C4        C        0.09375        0.259259        0.658521094890511        0        
C1        C        0.0625        0.351852        0.658521094890511        0        
C2        C        0.09375        0.407408        0.658521094890511        0        
C3        C        0.0625        0.425925        0.658521094890511        0        
C4        C        0.09375        0.37037        0.658521094890511        0        
C1        C        0.0625        0.46296300000000007        0.658521094890511        0        
C2        C        0.09375        0.518519        0.658521094890511        0        
C3        C        0.0625        0.537037        0.658521094890511        0        
C4        C        0.09375        0.481481        0.658521094890511        0        
C1        C        0.0625        0.574075        0.658521094890511        0        
C2        C        0.09375        0.62963        0.658521094890511        0        
C3        C        0.0625        0.648148        0.658521094890511        0        
C4        C        0.09375        0.592592        0.658521094890511        0        
C1        C        0.125        0.018519        0.658521094890511        0        
C2        C        0.15625        0.074075        0.658521094890511        0        
C3        C        0.125        0.092592        0.658521094890511        0        
C4        C        0.15625        0.037037        0.658521094890511        0        
C1        C        0.125        0.12963        0.658521094890511        0        
C2        C        0.15625        0.185185        0.658521094890511        0        
C3        C        0.125        0.203703        0.658521094890511        0        
C4        C        0.15625        0.148148        0.658521094890511        0        
C1        C        0.125        0.24074099999999998        0.658521094890511        0        
C2        C        0.15625        0.296297        0.658521094890511        0        
C3        C        0.125        0.314815        0.658521094890511        0        
C4        C        0.15625        0.259259        0.658521094890511        0        
C1        C        0.125        0.351852        0.658521094890511        0        
C2        C        0.15625        0.407408        0.658521094890511        0        
C3        C        0.125        0.425925        0.658521094890511        0        
C4        C        0.15625        0.37037        0.658521094890511        0        
C1        C        0.125        0.46296300000000007        0.658521094890511        0        
C2        C        0.15625        0.518519        0.658521094890511        0        
C3        C        0.125        0.537037        0.658521094890511        0        
C4        C        0.15625        0.481481        0.658521094890511        0        
C1        C        0.125        0.574075        0.658521094890511        0        
C2        C        0.15625        0.62963        0.658521094890511        0        
C3        C        0.125        0.648148        0.658521094890511        0        
C4        C        0.15625        0.592592        0.658521094890511        0        
C1        C        0.1875        0.018519        0.658521094890511        0        
C2        C        0.21875        0.074075        0.658521094890511        0        
C3        C        0.1875        0.092592        0.658521094890511        0        
C4        C        0.21875        0.037037        0.658521094890511        0        
C1        C        0.1875        0.12963        0.658521094890511        0        
C2        C        0.21875        0.185185        0.658521094890511        0        
C3        C        0.1875        0.203703        0.658521094890511        0        
C4        C        0.21875        0.148148        0.658521094890511        0        
C1        C        0.1875        0.24074099999999998        0.658521094890511        0        
C2        C        0.21875        0.296297        0.658521094890511        0        
C3        C        0.1875        0.314815        0.658521094890511        0        
C4        C        0.21875        0.259259        0.658521094890511        0        
C1        C        0.1875        0.351852        0.658521094890511        0        
C2        C        0.21875        0.407408        0.658521094890511        0        
C3        C        0.1875        0.425925        0.658521094890511        0        
C4        C        0.21875        0.37037        0.658521094890511        0        
C1        C        0.1875        0.46296300000000007        0.658521094890511        0        
C2        C        0.21875        0.518519        0.658521094890511        0        
C3        C        0.1875        0.537037        0.658521094890511        0        
C4        C        0.21875        0.481481        0.658521094890511        0        
C1        C        0.1875        0.574075        0.658521094890511        0        
C2        C        0.21875        0.62963        0.658521094890511        0        
C3        C        0.1875        0.648148        0.658521094890511        0        
C4        C        0.21875        0.592592        0.658521094890511        0        
C_FG        C        0.25        0.018519        0.658521094890511        0.08        
C2        C        0.28125        0.074075        0.658521094890511        0        
C3        C        0.25        0.092592        0.658521094890511        0        
C4        C        0.28125        0.037037        0.658521094890511        0        
C_FG        C        0.25        0.12963        0.658521094890511        0.08        
C2        C        0.28125        0.185185        0.658521094890511        0        
C3        C        0.25        0.203703        0.658521094890511        0        
C4        C        0.28125        0.148148        0.658521094890511        0        
C_FG        C        0.25        0.24074099999999998        0.658521094890511        0.08        
C2        C        0.28125        0.296297        0.658521094890511        0        
C3        C        0.25        0.314815        0.658521094890511        0        
C4        C        0.28125        0.259259        0.658521094890511        0        
C_FG        C        0.25        0.351852        0.658521094890511        0.08        
C2        C        0.28125        0.407408        0.658521094890511        0        
C3        C        0.25        0.425925        0.658521094890511        0        
C4        C        0.28125        0.37037        0.658521094890511        0        
C_FG        C        0.25        0.46296300000000007        0.658521094890511        0.08        
C2        C        0.28125        0.518519        0.658521094890511        0        
C3        C        0.25        0.537037        0.658521094890511        0        
C4        C        0.28125        0.481481        0.658521094890511        0        
C_FG        C        0.25        0.574075        0.658521094890511        0.08        
C2        C        0.28125        0.62963        0.658521094890511        0        
C3        C        0.25        0.648148        0.658521094890511        0        
C4        C        0.28125        0.592592        0.658521094890511        0        
C1        C        0.3125        0.018519        0.658521094890511        0        
C2        C        0.34375        0.074075        0.658521094890511        0        
C3        C        0.3125        0.092592        0.658521094890511        0        
C4        C        0.34375        0.037037        0.658521094890511        0        
C1        C        0.3125        0.12963        0.658521094890511        0        
C2        C        0.34375        0.185185        0.658521094890511        0        
C3        C        0.3125        0.203703        0.658521094890511        0        
C4        C        0.34375        0.148148        0.658521094890511        0        
C1        C        0.3125        0.24074099999999998        0.658521094890511        0        
C2        C        0.34375        0.296297        0.658521094890511        0        
C3        C        0.3125        0.314815        0.658521094890511        0        
C4        C        0.34375        0.259259        0.658521094890511        0        
C1        C        0.3125        0.351852        0.658521094890511        0        
C2        C        0.34375        0.407408        0.658521094890511        0        
C3        C        0.3125        0.425925        0.658521094890511        0        
C4        C        0.34375        0.37037        0.658521094890511        0        
C1        C        0.3125        0.46296300000000007        0.658521094890511        0        
C2        C        0.34375        0.518519        0.658521094890511        0        
C3        C        0.3125        0.537037        0.658521094890511        0        
C4        C        0.34375        0.481481        0.658521094890511        0        
C1        C        0.3125        0.574075        0.658521094890511        0        
C2        C        0.34375        0.62963        0.658521094890511        0        
C3        C        0.3125        0.648148        0.658521094890511        0        
C4        C        0.34375        0.592592        0.658521094890511        0        
C1        C        0.375        0.018519        0.658521094890511        0        
C2        C        0.40625        0.074075        0.658521094890511        0        
C3        C        0.375        0.092592        0.658521094890511        0        
C4        C        0.40625        0.037037        0.658521094890511        0        
C1        C        0.375        0.12963        0.658521094890511        0        
C2        C        0.40625        0.185185        0.658521094890511        0        
C3        C        0.375        0.203703        0.658521094890511        0        
C4        C        0.40625        0.148148        0.658521094890511        0        
C1        C        0.375        0.24074099999999998        0.658521094890511        0        
C2        C        0.40625        0.296297        0.658521094890511        0        
C3        C        0.375        0.314815        0.658521094890511        0        
C4        C        0.40625        0.259259        0.658521094890511        0        
C1        C        0.375        0.351852        0.658521094890511        0        
C2        C        0.40625        0.407408        0.658521094890511        0        
C3        C        0.375        0.425925        0.658521094890511        0        
C4        C        0.40625        0.37037        0.658521094890511        0        
C1        C        0.375        0.46296300000000007        0.658521094890511        0        
C2        C        0.40625        0.518519        0.658521094890511        0        
C3        C        0.375        0.537037        0.658521094890511        0        
C4        C        0.40625        0.481481        0.658521094890511        0        
C1        C        0.375        0.574075        0.658521094890511        0        
C2        C        0.40625        0.62963        0.658521094890511        0        
C3        C        0.375        0.648148        0.658521094890511        0        
C4        C        0.40625        0.592592        0.658521094890511        0        
C1        C        0.4375        0.018519        0.658521094890511        0        
C2        C        0.46875        0.074075        0.658521094890511        0        
C3        C        0.4375        0.092592        0.658521094890511        0        
C4        C        0.46875        0.037037        0.658521094890511        0        
C1        C        0.4375        0.12963        0.658521094890511        0        
C2        C        0.46875        0.185185        0.658521094890511        0        
C3        C        0.4375        0.203703        0.658521094890511        0        
C4        C        0.46875        0.148148        0.658521094890511        0        
C1        C        0.4375        0.24074099999999998        0.658521094890511        0        
C2        C        0.46875        0.296297        0.658521094890511        0        
C3        C        0.4375        0.314815        0.658521094890511        0        
C4        C        0.46875        0.259259        0.658521094890511        0        
C1        C        0.4375        0.351852        0.658521094890511        0        
C2        C        0.46875        0.407408        0.658521094890511        0        
C3        C        0.4375        0.425925        0.658521094890511        0        
C4        C        0.46875        0.37037        0.658521094890511        0        
C1        C        0.4375        0.46296300000000007        0.658521094890511        0        
C2        C        0.46875        0.518519        0.658521094890511        0        
C3        C        0.4375        0.537037        0.658521094890511        0        
C4        C        0.46875        0.481481        0.658521094890511        0        
C1        C        0.4375        0.574075        0.658521094890511        0        
C2        C        0.46875        0.62963        0.658521094890511        0        
C3        C        0.4375        0.648148        0.658521094890511        0        
C4        C        0.46875        0.592592        0.658521094890511        0        
C_FG        C        0.5        0.018519        0.658521094890511        0.08        
C2        C        0.53125        0.074075        0.658521094890511        0        
C3        C        0.5        0.092592        0.658521094890511        0        
C4        C        0.53125        0.037037        0.658521094890511        0        
C_FG        C        0.5        0.12963        0.658521094890511        0.08        
C2        C        0.53125        0.185185        0.658521094890511        0        
C3        C        0.5        0.203703        0.658521094890511        0        
C4        C        0.53125        0.148148        0.658521094890511        0        
C_FG        C        0.5        0.24074099999999998        0.658521094890511        0.08        
C2        C        0.53125        0.296297        0.658521094890511        0        
C3        C        0.5        0.314815        0.658521094890511        0        
C4        C        0.53125        0.259259        0.658521094890511        0        
C_FG        C        0.5        0.351852        0.658521094890511        0.08        
C2        C        0.53125        0.407408        0.658521094890511        0        
C3        C        0.5        0.425925        0.658521094890511        0        
C4        C        0.53125        0.37037        0.658521094890511        0        
C_FG        C        0.5        0.46296300000000007        0.658521094890511        0.08        
C2        C        0.53125        0.518519        0.658521094890511        0        
C3        C        0.5        0.537037        0.658521094890511        0        
C4        C        0.53125        0.481481        0.658521094890511        0        
C_FG        C        0.5        0.574075        0.658521094890511        0.08        
C2        C        0.53125        0.62963        0.658521094890511        0        
C3        C        0.5        0.648148        0.658521094890511        0        
C4        C        0.53125        0.592592        0.658521094890511        0        
C1        C        0.5625        0.018519        0.658521094890511        0        
C2        C        0.59375        0.074075        0.658521094890511        0        
C3        C        0.5625        0.092592        0.658521094890511        0        
C4        C        0.59375        0.037037        0.658521094890511        0        
C1        C        0.5625        0.12963        0.658521094890511        0        
C2        C        0.59375        0.185185        0.658521094890511        0        
C3        C        0.5625        0.203703        0.658521094890511        0        
C4        C        0.59375        0.148148        0.658521094890511        0        
C1        C        0.5625        0.24074099999999998        0.658521094890511        0        
C2        C        0.59375        0.296297        0.658521094890511        0        
C3        C        0.5625        0.314815        0.658521094890511        0        
C4        C        0.59375        0.259259        0.658521094890511        0        
C1        C        0.5625        0.351852        0.658521094890511        0        
C2        C        0.59375        0.407408        0.658521094890511        0        
C3        C        0.5625        0.425925        0.658521094890511        0        
C4        C        0.59375        0.37037        0.658521094890511        0        
C1        C        0.5625        0.46296300000000007        0.658521094890511        0        
C2        C        0.59375        0.518519        0.658521094890511        0        
C3        C        0.5625        0.537037        0.658521094890511        0        
C4        C        0.59375        0.481481        0.658521094890511        0        
C1        C        0.5625        0.574075        0.658521094890511        0        
C2        C        0.59375        0.62963        0.658521094890511        0        
C3        C        0.5625        0.648148        0.658521094890511        0        
C4        C        0.59375        0.592592        0.658521094890511        0        
C1        C        0.625        0.018519        0.658521094890511        0        
C2        C        0.65625        0.074075        0.658521094890511        0        
C3        C        0.625        0.092592        0.658521094890511        0        
C4        C        0.65625        0.037037        0.658521094890511        0        
C1        C        0.625        0.12963        0.658521094890511        0        
C2        C        0.65625        0.185185        0.658521094890511        0        
C3        C        0.625        0.203703        0.658521094890511        0        
C4        C        0.65625        0.148148        0.658521094890511        0        
C1        C        0.625        0.24074099999999998        0.658521094890511        0        
C2        C        0.65625        0.296297        0.658521094890511        0        
C3        C        0.625        0.314815        0.658521094890511        0        
C4        C        0.65625        0.259259        0.658521094890511        0        
C1        C        0.625        0.351852        0.658521094890511        0        
C2        C        0.65625        0.407408        0.658521094890511        0        
C3        C        0.625        0.425925        0.658521094890511        0        
C4        C        0.65625        0.37037        0.658521094890511        0        
C1        C        0.625        0.46296300000000007        0.658521094890511        0        
C2        C        0.65625        0.518519        0.658521094890511        0        
C3        C        0.625        0.537037        0.658521094890511        0        
C4        C        0.65625        0.481481        0.658521094890511        0        
C1        C        0.625        0.574075        0.658521094890511        0        
C2        C        0.65625        0.62963        0.658521094890511        0        
C3        C        0.625        0.648148        0.658521094890511        0        
C4        C        0.65625        0.592592        0.658521094890511        0        
C1        C        0.6875        0.018519        0.658521094890511        0        
C2        C        0.71875        0.074075        0.658521094890511        0        
C3        C        0.6875        0.092592        0.658521094890511        0        
C4        C        0.71875        0.037037        0.658521094890511        0        
C1        C        0.6875        0.12963        0.658521094890511        0        
C2        C        0.71875        0.185185        0.658521094890511        0        
C3        C        0.6875        0.203703        0.658521094890511        0        
C4        C        0.71875        0.148148        0.658521094890511        0        
C1        C        0.6875        0.24074099999999998        0.658521094890511        0        
C2        C        0.71875        0.296297        0.658521094890511        0        
C3        C        0.6875        0.314815        0.658521094890511        0        
C4        C        0.71875        0.259259        0.658521094890511        0        
C1        C        0.6875        0.351852        0.658521094890511        0        
C2        C        0.71875        0.407408        0.658521094890511        0        
C3        C        0.6875        0.425925        0.658521094890511        0        
C4        C        0.71875        0.37037        0.658521094890511        0        
C1        C        0.6875        0.46296300000000007        0.658521094890511        0        
C2        C        0.71875        0.518519        0.658521094890511        0        
C3        C        0.6875        0.537037        0.658521094890511        0        
C4        C        0.71875        0.481481        0.658521094890511        0        
C1        C        0.6875        0.574075        0.658521094890511        0        
C2        C        0.71875        0.62963        0.658521094890511        0        
C3        C        0.6875        0.648148        0.658521094890511        0        
C4        C        0.71875        0.592592        0.658521094890511        0        
C_FG        C        0.75        0.018519        0.658521094890511        0.08        
C2        C        0.78125        0.074075        0.658521094890511        0        
C3        C        0.75        0.092592        0.658521094890511        0        
C4        C        0.78125        0.037037        0.658521094890511        0        
C_FG        C        0.75        0.12963        0.658521094890511        0.08        
C2        C        0.78125        0.185185        0.658521094890511        0        
C3        C        0.75        0.203703        0.658521094890511        0        
C4        C        0.78125        0.148148        0.658521094890511        0        
C_FG        C        0.75        0.24074099999999998        0.658521094890511        0.08        
C2        C        0.78125        0.296297        0.658521094890511        0        
C3        C        0.75        0.314815        0.658521094890511        0        
C4        C        0.78125        0.259259        0.658521094890511        0        
C_FG        C        0.75        0.351852        0.658521094890511        0.08        
C2        C        0.78125        0.407408        0.658521094890511        0        
C3        C        0.75        0.425925        0.658521094890511        0        
C4        C        0.78125        0.37037        0.658521094890511        0        
C_FG        C        0.75        0.46296300000000007        0.658521094890511        0.08        
C2        C        0.78125        0.518519        0.658521094890511        0        
C3        C        0.75        0.537037        0.658521094890511        0        
C4        C        0.78125        0.481481        0.658521094890511        0        
C_FG        C        0.75        0.574075        0.658521094890511        0.08        
C2        C        0.78125        0.62963        0.658521094890511        0        
C3        C        0.75        0.648148        0.658521094890511        0        
C4        C        0.78125        0.592592        0.658521094890511        0        
C1        C        0.8125        0.018519        0.658521094890511        0        
C2        C        0.84375        0.074075        0.658521094890511        0        
C3        C        0.8125        0.092592        0.658521094890511        0        
C4        C        0.84375        0.037037        0.658521094890511        0        
C1        C        0.8125        0.12963        0.658521094890511        0        
C2        C        0.84375        0.185185        0.658521094890511        0        
C3        C        0.8125        0.203703        0.658521094890511        0        
C4        C        0.84375        0.148148        0.658521094890511        0        
C1        C        0.8125        0.24074099999999998        0.658521094890511        0        
C2        C        0.84375        0.296297        0.658521094890511        0        
C3        C        0.8125        0.314815        0.658521094890511        0        
C4        C        0.84375        0.259259        0.658521094890511        0        
C1        C        0.8125        0.351852        0.658521094890511        0        
C2        C        0.84375        0.407408        0.658521094890511        0        
C3        C        0.8125        0.425925        0.658521094890511        0        
C4        C        0.84375        0.37037        0.658521094890511        0        
C1        C        0.8125        0.46296300000000007        0.658521094890511        0        
C2        C        0.84375        0.518519        0.658521094890511        0        
C3        C        0.8125        0.537037        0.658521094890511        0        
C4        C        0.84375        0.481481        0.658521094890511        0        
C1        C        0.8125        0.574075        0.658521094890511        0        
C2        C        0.84375        0.62963        0.658521094890511        0        
C3        C        0.8125        0.648148        0.658521094890511        0        
C4        C        0.84375        0.592592        0.658521094890511        0        
C1        C        0.875        0.018519        0.658521094890511        0        
C2        C        0.9062500000000001        0.074075        0.658521094890511        0        
C3        C        0.875        0.092592        0.658521094890511        0        
C4        C        0.9062500000000001        0.037037        0.658521094890511        0        
C1        C        0.875        0.12963        0.658521094890511        0        
C2        C        0.9062500000000001        0.185185        0.658521094890511        0        
C3        C        0.875        0.203703        0.658521094890511        0        
C4        C        0.9062500000000001        0.148148        0.658521094890511        0        
C1        C        0.875        0.24074099999999998        0.658521094890511        0        
C2        C        0.9062500000000001        0.296297        0.658521094890511        0        
C3        C        0.875        0.314815        0.658521094890511        0        
C4        C        0.9062500000000001        0.259259        0.658521094890511        0        
C1        C        0.875        0.351852        0.658521094890511        0        
C2        C        0.9062500000000001        0.407408        0.658521094890511        0        
C3        C        0.875        0.425925        0.658521094890511        0        
C4        C        0.9062500000000001        0.37037        0.658521094890511        0        
C1        C        0.875        0.46296300000000007        0.658521094890511        0        
C2        C        0.9062500000000001        0.518519        0.658521094890511        0        
C3        C        0.875        0.537037        0.658521094890511        0        
C4        C        0.9062500000000001        0.481481        0.658521094890511        0        
C1        C        0.875        0.574075        0.658521094890511        0        
C2        C        0.9062500000000001        0.62963        0.658521094890511        0        
C3        C        0.875        0.648148        0.658521094890511        0        
C4        C        0.9062500000000001        0.592592        0.658521094890511        0        
C1        C        0.9375        0.018519        0.658521094890511        0        
C2        C        0.9687500000000001        0.074075        0.658521094890511        0        
C3        C        0.9375        0.092592        0.658521094890511        0        
C4        C        0.9687500000000001        0.037037        0.658521094890511        0        
C1        C        0.9375        0.12963        0.658521094890511        0        
C2        C        0.9687500000000001        0.185185        0.658521094890511        0        
C3        C        0.9375        0.203703        0.658521094890511        0        
C4        C        0.9687500000000001        0.148148        0.658521094890511        0        
C1        C        0.9375        0.24074099999999998        0.658521094890511        0        
C2        C        0.9687500000000001        0.296297        0.658521094890511        0        
C3        C        0.9375        0.314815        0.658521094890511        0        
C4        C        0.9687500000000001        0.259259        0.658521094890511        0        
C1        C        0.9375        0.351852        0.658521094890511        0        
C2        C        0.9687500000000001        0.407408        0.658521094890511        0        
C3        C        0.9375        0.425925        0.658521094890511        0        
C4        C        0.9687500000000001        0.37037        0.658521094890511        0        
C1        C        0.9375        0.46296300000000007        0.658521094890511        0        
C2        C        0.9687500000000001        0.518519        0.658521094890511        0        
C3        C        0.9375        0.537037        0.658521094890511        0        
C4        C        0.9687500000000001        0.481481        0.658521094890511        0        
C1        C        0.9375        0.574075        0.658521094890511        0        
C2        C        0.9687500000000001        0.62963        0.658521094890511        0        
C3        C        0.9375        0.648148        0.658521094890511        0        
C4        C        0.9687500000000001        0.592592        0.658521094890511        0        
C_FG        C        0.0        0.685186        0.658521094890511        0.08        
C1        C        0.0625        0.685186        0.658521094890511        0        
C1        C        0.125        0.685186        0.658521094890511        0        
C1        C        0.1875        0.685186        0.658521094890511        0        
C_FG        C        0.25        0.685186        0.658521094890511        0.08        
C1        C        0.3125        0.685186        0.658521094890511        0        
C1        C        0.375        0.685186        0.658521094890511        0        
C1        C        0.4375        0.685186        0.658521094890511        0        
C_FG        C        0.5        0.685186        0.658521094890511        0.08        
C1        C        0.5625        0.685186        0.658521094890511        0        
C1        C        0.625        0.685186        0.658521094890511        0        
C1        C        0.6875        0.685186        0.658521094890511        0        
C_FG        C        0.75        0.685186        0.658521094890511        0.08        
C1        C        0.8125        0.685186        0.658521094890511        0        
C1        C        0.875        0.685186        0.658521094890511        0        
C1        C        0.9375        0.685186        0.658521094890511        0        
C2        C        0.03125        0.740741        0.658521094890511        0        
C2        C        0.09375        0.740741        0.658521094890511        0        
C2        C        0.15625        0.740741        0.658521094890511        0        
C2        C        0.21875        0.740741        0.658521094890511        0        
C2        C        0.28125        0.740741        0.658521094890511        0        
C2        C        0.34375        0.740741        0.658521094890511        0        
C2        C        0.40625        0.740741        0.658521094890511        0        
C2        C        0.46875        0.740741        0.658521094890511        0        
C2        C        0.53125        0.740741        0.658521094890511        0        
C2        C        0.59375        0.740741        0.658521094890511        0        
C2        C        0.65625        0.740741        0.658521094890511        0        
C2        C        0.71875        0.740741        0.658521094890511        0        
C2        C        0.78125        0.740741        0.658521094890511        0        
C2        C        0.84375        0.740741        0.658521094890511        0        
C2        C        0.9062500000000001        0.740741        0.658521094890511        0        
C2        C        0.9687500000000001        0.740741        0.658521094890511        0        
C3        C        0.0        0.759259        0.658521094890511        0        
C3        C        0.0625        0.759259        0.658521094890511        0        
C3        C        0.125        0.759259        0.658521094890511        0        
C3        C        0.1875        0.759259        0.658521094890511        0        
C3        C        0.25        0.759259        0.658521094890511        0        
C3        C        0.3125        0.759259        0.658521094890511        0        
C3        C        0.375        0.759259        0.658521094890511        0        
C3        C        0.4375        0.759259        0.658521094890511        0        
C3        C        0.5        0.759259        0.658521094890511        0        
C3        C        0.5625        0.759259        0.658521094890511        0        
C3        C        0.625        0.759259        0.658521094890511        0        
C3        C        0.6875        0.759259        0.658521094890511        0        
C3        C        0.75        0.759259        0.658521094890511        0        
C3        C        0.8125        0.759259        0.658521094890511        0        
C3        C        0.875        0.759259        0.658521094890511        0        
C3        C        0.9375        0.759259        0.658521094890511        0        
C4        C        0.03125        0.703703        0.658521094890511        0        
C4        C        0.09375        0.703703        0.658521094890511        0        
C4        C        0.15625        0.703703        0.658521094890511        0        
C4        C        0.21875        0.703703        0.658521094890511        0        
C4        C        0.28125        0.703703        0.658521094890511        0        
C4        C        0.34375        0.703703        0.658521094890511        0        
C4        C        0.40625        0.703703        0.658521094890511        0        
C4        C        0.46875        0.703703        0.658521094890511        0        
C4        C        0.53125        0.703703        0.658521094890511        0        
C4        C        0.59375        0.703703        0.658521094890511        0        
C4        C        0.65625        0.703703        0.658521094890511        0        
C4        C        0.71875        0.703703        0.658521094890511        0        
C4        C        0.78125        0.703703        0.658521094890511        0        
C4        C        0.84375        0.703703        0.658521094890511        0        
C4        C        0.9062500000000001        0.703703        0.658521094890511        0        
C4        C        0.9687500000000001        0.703703        0.658521094890511        0        
C_FG        C        0.0        0.796297        0.658521094890511        0.08        
C1        C        0.0625        0.796297        0.658521094890511        0        
C1        C        0.125        0.796297        0.658521094890511        0        
C1        C        0.1875        0.796297        0.658521094890511        0        
C_FG        C        0.25        0.796297        0.658521094890511        0.08        
C1        C        0.3125        0.796297        0.658521094890511        0        
C1        C        0.375        0.796297        0.658521094890511        0        
C1        C        0.4375        0.796297        0.658521094890511        0        
C_FG        C        0.5        0.796297        0.658521094890511        0.08        
C1        C        0.5625        0.796297        0.658521094890511        0        
C1        C        0.625        0.796297        0.658521094890511        0        
C1        C        0.6875        0.796297        0.658521094890511        0        
C_FG        C        0.75        0.796297        0.658521094890511        0.08        
C1        C        0.8125        0.796297        0.658521094890511        0        
C1        C        0.875        0.796297        0.658521094890511        0        
C1        C        0.9375        0.796297        0.658521094890511        0        
C2        C        0.03125        0.851852        0.658521094890511        0        
C2        C        0.09375        0.851852        0.658521094890511        0        
C2        C        0.15625        0.851852        0.658521094890511        0        
C2        C        0.21875        0.851852        0.658521094890511        0        
C2        C        0.28125        0.851852        0.658521094890511        0        
C2        C        0.34375        0.851852        0.658521094890511        0        
C2        C        0.40625        0.851852        0.658521094890511        0        
C2        C        0.46875        0.851852        0.658521094890511        0        
C2        C        0.53125        0.851852        0.658521094890511        0        
C2        C        0.59375        0.851852        0.658521094890511        0        
C2        C        0.65625        0.851852        0.658521094890511        0        
C2        C        0.71875        0.851852        0.658521094890511        0        
C2        C        0.78125        0.851852        0.658521094890511        0        
C2        C        0.84375        0.851852        0.658521094890511        0        
C2        C        0.9062500000000001        0.851852        0.658521094890511        0        
C2        C        0.9687500000000001        0.851852        0.658521094890511        0        
C3        C        0.0        0.87037        0.658521094890511        0        
C3        C        0.0625        0.87037        0.658521094890511        0        
C3        C        0.125        0.87037        0.658521094890511        0        
C3        C        0.1875        0.87037        0.658521094890511        0        
C3        C        0.25        0.87037        0.658521094890511        0        
C3        C        0.3125        0.87037        0.658521094890511        0        
C3        C        0.375        0.87037        0.658521094890511        0        
C3        C        0.4375        0.87037        0.658521094890511        0        
C3        C        0.5        0.87037        0.658521094890511        0        
C3        C        0.5625        0.87037        0.658521094890511        0        
C3        C        0.625        0.87037        0.658521094890511        0        
C3        C        0.6875        0.87037        0.658521094890511        0        
C3        C        0.75        0.87037        0.658521094890511        0        
C3        C        0.8125        0.87037        0.658521094890511        0        
C3        C        0.875        0.87037        0.658521094890511        0        
C3        C        0.9375        0.87037        0.658521094890511        0        
C4        C        0.03125        0.814814        0.658521094890511        0        
C4        C        0.09375        0.814814        0.658521094890511        0        
C4        C        0.15625        0.814814        0.658521094890511        0        
C4        C        0.21875        0.814814        0.658521094890511        0        
C4        C        0.28125        0.814814        0.658521094890511        0        
C4        C        0.34375        0.814814        0.658521094890511        0        
C4        C        0.40625        0.814814        0.658521094890511        0        
C4        C        0.46875        0.814814        0.658521094890511        0        
C4        C        0.53125        0.814814        0.658521094890511        0        
C4        C        0.59375        0.814814        0.658521094890511        0        
C4        C        0.65625        0.814814        0.658521094890511        0        
C4        C        0.71875        0.814814        0.658521094890511        0        
C4        C        0.78125        0.814814        0.658521094890511        0        
C4        C        0.84375        0.814814        0.658521094890511        0        
C4        C        0.9062500000000001        0.814814        0.658521094890511        0        
C4        C        0.9687500000000001        0.814814        0.658521094890511        0        
C_FG        C        0.0        0.907408        0.658521094890511        0.08        
C1        C        0.0625        0.907408        0.658521094890511        0        
C1        C        0.125        0.907408        0.658521094890511        0        
C1        C        0.1875        0.907408        0.658521094890511        0        
C_FG        C        0.25        0.907408        0.658521094890511        0.08        
C1        C        0.3125        0.907408        0.658521094890511        0        
C1        C        0.375        0.907408        0.658521094890511        0        
C1        C        0.4375        0.907408        0.658521094890511        0        
C_FG        C        0.5        0.907408        0.658521094890511        0.08        
C1        C        0.5625        0.907408        0.658521094890511        0        
C1        C        0.625        0.907408        0.658521094890511        0        
C1        C        0.6875        0.907408        0.658521094890511        0        
C_FG        C        0.75        0.907408        0.658521094890511        0.08        
C1        C        0.8125        0.907408        0.658521094890511        0        
C1        C        0.875        0.907408        0.658521094890511        0        
C1        C        0.9375        0.907408        0.658521094890511        0        
C2        C        0.03125        0.962963        0.658521094890511        0        
C2        C        0.09375        0.962963        0.658521094890511        0        
C2        C        0.15625        0.962963        0.658521094890511        0        
C2        C        0.21875        0.962963        0.658521094890511        0        
C2        C        0.28125        0.962963        0.658521094890511        0        
C2        C        0.34375        0.962963        0.658521094890511        0        
C2        C        0.40625        0.962963        0.658521094890511        0        
C2        C        0.46875        0.962963        0.658521094890511        0        
C2        C        0.53125        0.962963        0.658521094890511        0        
C2        C        0.59375        0.962963        0.658521094890511        0        
C2        C        0.65625        0.962963        0.658521094890511        0        
C2        C        0.71875        0.962963        0.658521094890511        0        
C2        C        0.78125        0.962963        0.658521094890511        0        
C2        C        0.84375        0.962963        0.658521094890511        0        
C2        C        0.9062500000000001        0.962963        0.658521094890511        0        
C2        C        0.9687500000000001        0.962963        0.658521094890511        0        
C3        C        0.0        0.9814809999999999        0.658521094890511        0        
C3        C        0.0625        0.9814809999999999        0.658521094890511        0        
C3        C        0.125        0.9814809999999999        0.658521094890511        0        
C3        C        0.1875        0.9814809999999999        0.658521094890511        0        
C3        C        0.25        0.9814809999999999        0.658521094890511        0        
C3        C        0.3125        0.9814809999999999        0.658521094890511        0        
C3        C        0.375        0.9814809999999999        0.658521094890511        0        
C3        C        0.4375        0.9814809999999999        0.658521094890511        0        
C3        C        0.5        0.9814809999999999        0.658521094890511        0        
C3        C        0.5625        0.9814809999999999        0.658521094890511        0        
C3        C        0.625        0.9814809999999999        0.658521094890511        0        
C3        C        0.6875        0.9814809999999999        0.658521094890511        0        
C3        C        0.75        0.9814809999999999        0.658521094890511        0        
C3        C        0.8125        0.9814809999999999        0.658521094890511        0        
C3        C        0.875        0.9814809999999999        0.658521094890511        0        
C3        C        0.9375        0.9814809999999999        0.658521094890511        0        
C4        C        0.03125        0.925925        0.658521094890511        0        
C4        C        0.09375        0.925925        0.658521094890511        0        
C4        C        0.15625        0.925925        0.658521094890511        0        
C4        C        0.21875        0.925925        0.658521094890511        0        
C4        C        0.28125        0.925925        0.658521094890511        0        
C4        C        0.34375        0.925925        0.658521094890511        0        
C4        C        0.40625        0.925925        0.658521094890511        0        
C4        C        0.46875        0.925925        0.658521094890511        0        
C4        C        0.53125        0.925925        0.658521094890511        0        
C4        C        0.59375        0.925925        0.658521094890511        0        
C4        C        0.65625        0.925925        0.658521094890511        0        
C4        C        0.71875        0.925925        0.658521094890511        0        
C4        C        0.78125        0.925925        0.658521094890511        0        
C4        C        0.84375        0.925925        0.658521094890511        0        
C4        C        0.9062500000000001        0.925925        0.658521094890511        0        
C4        C        0.9687500000000001        0.925925        0.658521094890511        0        
C_COOH        C        0.0        0.018519        0.05852109489051095        0.55        
C_COOH        C        0.0        0.12963        0.05852109489051095        0.55        
C_COOH        C        0.0        0.24074099999999998        0.05852109489051095        0.55        
C_COOH        C        0.0        0.351852        0.05852109489051095        0.55        
C_COOH        C        0.0        0.46296300000000007        0.05852109489051095        0.55        
C_COOH        C        0.0        0.574075        0.05852109489051095        0.55        
C_COOH        C        0.25        0.018519        0.05852109489051095        0.55        
C_COOH        C        0.25        0.12963        0.05852109489051095        0.55        
C_COOH        C        0.25        0.24074099999999998        0.05852109489051095        0.55        
C_COOH        C        0.25        0.351852        0.05852109489051095        0.55        
C_COOH        C        0.25        0.46296300000000007        0.05852109489051095        0.55        
C_COOH        C        0.25        0.574075        0.05852109489051095        0.55        
C_COOH        C        0.5        0.018519        0.05852109489051095        0.55        
C_COOH        C        0.5        0.12963        0.05852109489051095        0.55        
C_COOH        C        0.5        0.24074099999999998        0.05852109489051095        0.55        
C_COOH        C        0.5        0.351852        0.05852109489051095        0.55        
C_COOH        C        0.5        0.46296300000000007        0.05852109489051095        0.55        
C_COOH        C        0.5        0.574075        0.05852109489051095        0.55        
C_COOH        C        0.75        0.018519        0.05852109489051095        0.55        
C_COOH        C        0.75        0.12963        0.05852109489051095        0.55        
C_COOH        C        0.75        0.24074099999999998        0.05852109489051095        0.55        
C_COOH        C        0.75        0.351852        0.05852109489051095        0.55        
C_COOH        C        0.75        0.46296300000000007        0.05852109489051095        0.55        
C_COOH        C        0.75        0.574075        0.05852109489051095        0.55        
C_COOH        C        0.0        0.685186        0.05852109489051095        0.55        
C_COOH        C        0.25        0.685186        0.05852109489051095        0.55        
C_COOH        C        0.5        0.685186        0.05852109489051095        0.55        
C_COOH        C        0.75        0.685186        0.05852109489051095        0.55        
C_COOH        C        0.0        0.796297        0.05852109489051095        0.55        
C_COOH        C        0.25        0.796297        0.05852109489051095        0.55        
C_COOH        C        0.5        0.796297        0.05852109489051095        0.55        
C_COOH        C        0.75        0.796297        0.05852109489051095        0.55        
C_COOH        C        0.0        0.907408        0.05852109489051095        0.55        
C_COOH        C        0.25        0.907408        0.05852109489051095        0.55        
C_COOH        C        0.5        0.907408        0.05852109489051095        0.55        
C_COOH        C        0.75        0.907408        0.05852109489051095        0.55        
C_COOH        C        0.0        0.018519        0.76947        0.55        
C_COOH        C        0.0        0.12963        0.76947        0.55        
C_COOH        C        0.0        0.24074099999999998        0.76947        0.55        
C_COOH        C        0.0        0.351852        0.76947        0.55        
C_COOH        C        0.0        0.46296300000000007        0.76947        0.55        
C_COOH        C        0.0        0.574075        0.76947        0.55        
C_COOH        C        0.25        0.018519        0.76947        0.55        
C_COOH        C        0.25        0.12963        0.76947        0.55        
C_COOH        C        0.25        0.24074099999999998        0.76947        0.55        
C_COOH        C        0.25        0.351852        0.76947        0.55        
C_COOH        C        0.25        0.46296300000000007        0.76947        0.55        
C_COOH        C        0.25        0.574075        0.76947        0.55        
C_COOH        C        0.5        0.018519        0.76947        0.55        
C_COOH        C        0.5        0.12963        0.76947        0.55        
C_COOH        C        0.5        0.24074099999999998        0.76947        0.55        
C_COOH        C        0.5        0.351852        0.76947        0.55        
C_COOH        C        0.5        0.46296300000000007        0.76947        0.55        
C_COOH        C        0.5        0.574075        0.76947        0.55        
C_COOH        C        0.75        0.018519        0.76947        0.55        
C_COOH        C        0.75        0.12963        0.76947        0.55        
C_COOH        C        0.75        0.24074099999999998        0.76947        0.55        
C_COOH        C        0.75        0.351852        0.76947        0.55        
C_COOH        C        0.75        0.46296300000000007        0.76947        0.55        
C_COOH        C        0.75        0.574075        0.76947        0.55        
C_COOH        C        0.0        0.685186        0.76947        0.55        
C_COOH        C        0.25        0.685186        0.76947        0.55        
C_COOH        C        0.5        0.685186        0.76947        0.55        
C_COOH        C        0.75        0.685186        0.76947        0.55        
C_COOH        C        0.0        0.796297        0.76947        0.55        
C_COOH        C        0.25        0.796297        0.76947        0.55        
C_COOH        C        0.5        0.796297        0.76947        0.55        
C_COOH        C        0.75        0.796297        0.76947        0.55        
C_COOH        C        0.0        0.907408        0.76947        0.55        
C_COOH        C        0.25        0.907408        0.76947        0.55        
C_COOH        C        0.5        0.907408        0.76947        0.55        
C_COOH        C        0.75        0.907408        0.76947        0.55        
O1_COOH        O        0.027140434836134018        0.028394810907370165        0.026764963503649628        -0.5        
O1_COOH        O        -0.0279087866749741        0.13690694852832955        0.026764963503649628        -0.5        
O1_COOH        O        -0.016608695121538335        0.2648890452189008        0.026764963503649628        -0.5        
O1_COOH        O        0.01901813943234533        0.3740479236094927        0.026764963503649628        -0.5        
O1_COOH        O        2.1865504236572115e-05        0.49252393664600047        0.026764963503649628        -0.5        
O1_COOH        O        -0.02394840681488539        0.5904884427071823        0.026764963503649628        -0.5        
O1_COOH        O        0.2587421553303668        0.04668464681694642        0.026764963503649628        -0.5        
O1_COOH        O        0.25481316551960104        0.15877504881727042        0.026764963503649628        -0.5        
O1_COOH        O        0.2630620263676692        0.2670855250496639        0.026764963503649628        -0.5        
O1_COOH        O        0.2559951561567482        0.38076514133174316        0.026764963503649628        -0.5        
O1_COOH        O        0.22537949622312384        0.4782926479453573        0.026764963503649628        -0.5        
O1_COOH        O        0.2266924206522312        0.5914334782595536        0.026764963503649628        -0.5        
O1_COOH        O        0.4717208237616073        0.024088602973687895        0.026764963503649628        -0.5        
O1_COOH        O        0.49457468875919947        0.1586615090217048        0.026764963503649628        -0.5        
O1_COOH        O        0.5090372240061609        0.2688083239261938        0.026764963503649628        -0.5        
O1_COOH        O        0.51150256928267        0.3789519412005889        0.026764963503649628        -0.5        
O1_COOH        O        0.47439155737930966        0.47647963799281334        0.026764963503649628        -0.5        
O1_COOH        O        0.4780503840466457        0.5932084243018088        0.026764963503649628        -0.5        
O1_COOH        O        0.7732980071524836        0.035891015948370984        0.026764963503649628        -0.5        
O1_COOH        O        0.7319605264514709        0.15267086404762242        0.026764963503649628        -0.5        
O1_COOH        O        0.7649770743796956        0.2659886275109862        0.026764963503649628        -0.5        
O1_COOH        O        0.7504978318257579        0.3814085268664418        0.026764963503649628        -0.5        
O1_COOH        O        0.7655060405151638        0.48787180949341047        0.026764963503649628        -0.5        
O1_COOH        O        0.773234420587762        0.5915365378404287        0.026764963503649628        -0.5        
O1_COOH        O        0.020866535896978417        0.7055566039582428        0.026764963503649628        -0.5        
O1_COOH        O        0.23210255228738152        0.7083433006332968        0.026764963503649628        -0.5        
O1_COOH        O        0.5285731932726268        0.6888471032817329        0.026764963503649628        -0.5        
O1_COOH        O        0.7754259184835903        0.6990610399004583        0.026764963503649628        -0.5        
O1_COOH        O        0.02821306743591243        0.8022093995214075        0.026764963503649628        -0.5        
O1_COOH        O        0.2563893706758439        0.8251210239252704        0.026764963503649628        -0.5        
O1_COOH        O        0.5206991585119541        0.8168467874527472        0.026764963503649628        -0.5        
O1_COOH        O        0.7382564556305181        0.8232877957681235        0.026764963503649628        -0.5        
O1_COOH        O        -0.024389683448851486        0.9231217067543114        0.026764963503649628        -0.5        
O1_COOH        O        0.2711255197608669        0.9274953067122358        0.026764963503649628        -0.5        
O1_COOH        O        0.5230762602756038        0.9250891968837213        0.026764963503649628        -0.5        
O1_COOH        O        0.7296303049715096        0.9283018740134829        0.026764963503649628        -0.5        
O1_COOH        O        -0.006791949786373313        0.047245846761700225        0.8012261313868613        -0.5        
O1_COOH        O        0.028198953969290147        0.13561293936716687        0.8012261313868613        -0.5        
O1_COOH        O        -0.02287919362614226        0.25869007486686013        0.8012261313868613        -0.5        
O1_COOH        O        0.011968407463248287        0.3787384954349781        0.8012261313868613        -0.5        
O1_COOH        O        -0.0015675699397077183        0.4924801088945819        0.8012261313868613        -0.5        
O1_COOH        O        0.02027475784527328        0.5950659667446285        0.8012261313868613        -0.5        
O1_COOH        O        0.23152979204889518        0.04119735002480427        0.8012261313868613        -0.5        
O1_COOH        O        0.23986744444813418        0.1573002967350342        0.8012261313868613        -0.5        
O1_COOH        O        0.27489638235965524        0.25559364055352446        0.8012261313868613        -0.5        
O1_COOH        O        0.24968149028047595        0.3814111366778437        0.8012261313868613        -0.5        
O1_COOH        O        0.24741669542108047        0.4924047426604606        0.8012261313868613        -0.5        
O1_COOH        O        0.2212847164809894        0.5762715110294956        0.8012261313868613        -0.5        
O1_COOH        O        0.47659949471332536        0.03574521138359289        0.8012261313868613        -0.5        
O1_COOH        O        0.5209862997077384        0.14987052369486223        0.8012261313868613        -0.5        
O1_COOH        O        0.5049113293725863        0.26986878413940923        0.8012261313868613        -0.5        
O1_COOH        O        0.47958500604835497        0.37269922665040744        0.8012261313868613        -0.5        
O1_COOH        O        0.48756023107604574        0.4896230498224402        0.8012261313868613        -0.5        
O1_COOH        O        0.47456974973879906        0.5879416707280073        0.8012261313868613        -0.5        
O1_COOH        O        0.7255022843520456        0.03405458542524069        0.8012261313868613        -0.5        
O1_COOH        O        0.754816302619526        0.158774502624557        0.8012261313868613        -0.5        
O1_COOH        O        0.7786965916713152        0.24318142081038852        0.8012261313868613        -0.5        
O1_COOH        O        0.7778657324756773        0.3593008104353537        0.8012261313868613        -0.5        
O1_COOH        O        0.7785843701444713        0.46653096730460897        0.8012261313868613        -0.5        
O1_COOH        O        0.7566334184341682        0.6028408620267276        0.8012261313868613        -0.5        
O1_COOH        O        -0.028738603608931927        0.6870333204213799        0.8012261313868613        -0.5        
O1_COOH        O        0.27576307826258895        0.6983893076768826        0.8012261313868613        -0.5        
O1_COOH        O        0.49209958373042095        0.7136125308332074        0.8012261313868613        -0.5        
O1_COOH        O        0.7514774395655047        0.7147080081032317        0.8012261313868613        -0.5        
O1_COOH        O        0.0024890673175822545        0.8257472969335589        0.8012261313868613        -0.5        
O1_COOH        O        0.2431265596563897        0.8250034118941706        0.8012261313868613        -0.5        
O1_COOH        O        0.4758120768742488        0.8123360163428097        0.8012261313868613        -0.5        
O1_COOH        O        0.7594476591882333        0.824221519229862        0.8012261313868613        -0.5        
O1_COOH        O        -0.010928091657586358        0.9347573598036889        0.8012261313868613        -0.5        
O1_COOH        O        0.22846091612545438        0.9270269709203683        0.8012261313868613        -0.5        
O1_COOH        O        0.4721749592978747        0.915015438144554        0.8012261313868613        -0.5        
O1_COOH        O        0.7254631262036074        0.9228783195385495        0.8012261313868613        -0.5        
O2_COOH        O        -0.026425206634276298        0.008903444999353968        0.0        -0.58        
O2_COOH        O        0.027173310201214856        0.12254481991025122        0.0        -0.58        
O2_COOH        O        0.016171008429386832        0.21722932494482625        0.0        -0.58        
O2_COOH        O        -0.018516956980737517        0.33024100255796335        0.0        -0.58        
O2_COOH        O        -2.128928556608071e-05        0.4341810787120881        0.0        -0.58        
O2_COOH        O        0.023317297694969482        0.5580940985245493        0.0        -0.58        
O2_COOH        O        0.24148822550454058        -0.00890440134266891        0.0        -0.58        
O2_COOH        O        0.24531367517917968        0.10125300670521806        0.0        -0.58        
O2_COOH        O        0.23728219544336565        0.21509072864943235        0.0        -0.58        
O2_COOH        O        0.24416283338114        0.3237008027642015        0.0        -0.58        
O2_COOH        O        0.27397168297678637        0.44803733218986425        0.0        -0.58        
O2_COOH        O        0.27269335786726523        0.5571739673660424        0.0        -0.58        
O2_COOH        O        0.5275339389386544        0.01309617201882728        0.0        -0.58        
O2_COOH        O        0.5052823387487714        0.10136355440193517        0.0        -0.58        
O2_COOH        O        0.4912009327335795        0.2134133304582659        0.0        -0.58        
O2_COOH        O        0.4888005563671017        0.325466219877978        0.0        -0.58        
O2_COOH        O        0.5249335868021097        0.44980256413678166        0.0        -0.58        
O2_COOH        O        0.5213711806981872        0.5554457962363436        0.0        -0.58        
O2_COOH        O        0.7273159620732546        0.001604786434104286        0.0        -0.58        
O2_COOH        O        0.7675640817463537        0.10719632872071484        0.0        -0.58        
O2_COOH        O        0.7354176144321216        0.21615871979589676        0.0        -0.58        
O2_COOH        O        0.7495152874688928        0.3230743722813236        0.0        -0.58        
O2_COOH        O        0.7349025880695494        0.43871060898816344        0.0        -0.58        
O2_COOH        O        0.7273778729498516        0.5570736237003383        0.0        -0.58        
O2_COOH        O        -0.020316642903785632        0.6653522198077644        0.0        -0.58        
O2_COOH        O        0.2674257986980531        0.6626389605726061        0.0        -0.58        
O2_COOH        O        0.472179792218177        0.6816213772769912        0.0        -0.58        
O2_COOH        O        0.7252441273011364        0.6716766071460472        0.0        -0.58        
O2_COOH        O        -0.027469572292488538        0.7905404091420828        0.0        -0.58        
O2_COOH        O        0.2437790075438522        0.7682325716717364        0.0        -0.58        
O2_COOH        O        0.4798463236076898        0.7762887583116125        0.0        -0.58        
O2_COOH        O        0.7614340683358983        0.7700174890156503        0.0        -0.58        
O2_COOH        O        0.023746945425591217        0.8921083944306644        0.0        -0.58        
O2_COOH        O        0.22943119819900007        0.8878500513598326        0.0        -0.58        
O2_COOH        O        0.47753186528473346        0.8901927533020509        0.0        -0.58        
O2_COOH        O        0.7698328952153857        0.88706473941739        0.0        -0.58        
O2_COOH        O        0.0066129624539246765        -0.009450812061318111        0.827991094890511        -0.58        
O2_COOH        O        -0.027455830756139863        0.12380472822332086        0.827991094890511        -0.58        
O2_COOH        O        0.022276261336516823        0.22326493467110575        0.827991094890511        -0.58        
O2_COOH        O        -0.011653005643022372        0.32567404073624834        0.827991094890511        -0.58        
O2_COOH        O        0.0015262599814836642        0.4342237514767121        0.827991094890511        -0.58        
O2_COOH        O        -0.01974045989889443        0.5536372053578326        0.827991094890511        -0.58        
O2_COOH        O        0.26798346506358045        -0.0035617105393916937        0.827991094890511        -0.58        
O2_COOH        O        0.2598655336883127        0.10268889484565187        0.827991094890511        -0.58        
O2_COOH        O        0.22575970863134656        0.22627976907053185        0.827991094890511        -0.58        
O2_COOH        O        0.25031011607604176        0.32307183124592787        0.827991094890511        -0.58        
O2_COOH        O        0.25251522710337476        0.4342971315946772        0.827991094890511        -0.58        
O2_COOH        O        0.2779585535431963        0.5719363733280496        0.827991094890511        -0.58        
O2_COOH        O        0.522783834941494        0.00174674863094249        0.827991094890511        -0.58        
O2_COOH        O        0.4795667494049321        0.10992287208358939        0.827991094890511        -0.58        
O2_COOH        O        0.49521809822491136        0.2123808164093628        0.827991094890511        -0.58        
O2_COOH        O        0.5198770003821562        0.3315541574888267        0.827991094890511        -0.58        
O2_COOH        O        0.5121119453790213        0.4370055188582413        0.827991094890511        -0.58        
O2_COOH        O        0.5247600903217258        0.5605737557668307        0.827991094890511        -0.58        
O2_COOH        O        0.7738521306667889        0.003392821752484709        0.827991094890511        -0.58        
O2_COOH        O        0.7453106207508239        0.10125353850418893        0.827991094890511        -0.58        
O2_COOH        O        0.7220596457207694        0.23836489126856414        0.827991094890511        -0.58        
O2_COOH        O        0.7228686093966016        0.34459948705677657        0.827991094890511        -0.58        
O2_COOH        O        0.7221689098889218        0.4594890588543296        0.827991094890511        -0.58        
O2_COOH        O        0.7435413911430359        0.5460672008376474        0.827991094890511        -0.58        
O2_COOH        O        0.027981259081947707        0.6833873617633829        0.827991094890511        -0.58        
O2_COOH        O        0.22491585264811034        0.6723306373013509        0.827991094890511        -0.58        
O2_COOH        O        0.5076922176700897        0.6575085896822022        0.827991094890511        -0.58        
O2_COOH        O        0.7485614951991801        0.6564419813762438        0.827991094890511        -0.58        
O2_COOH        O        -0.002423473263816874        0.7676228027511789        0.827991094890511        -0.58        
O2_COOH        O        0.2566923055015483        0.7683470842889165        0.827991094890511        -0.58        
O2_COOH        O        0.5235505020649481        0.7806806576816744        0.827991094890511        -0.58        
O2_COOH        O        0.7408013136942486        0.7691083718417847        0.827991094890511        -0.58        
O2_COOH        O        0.010640105138830007        0.8807793741695304        0.827991094890511        -0.58        
O2_COOH        O        0.27097146731562655        0.8883060451620339        0.827991094890511        -0.58        
O2_COOH        O        0.5270917711746415        0.9000010396421037        0.827991094890511        -0.58        
O2_COOH        O        0.773890256885847        0.8923453676961073        0.827991094890511        -0.58        
H_COOH        H        -0.04497618110898513        0.0021531509393723034        0.042610218978102195        0.45        
H_COOH        H        0.04624946695233073        0.11757089494486771        0.042610218978102195        0.45        
H_COOH        H        0.027523349728195833        0.2007237024971885        0.042610218978102195        0.45        
H_COOH        H        -0.031516196723800766        0.3150696902776573        0.042610218978102195        0.45        
H_COOH        H        -3.623475027283063e-05        0.41397564779399776        0.042610218978102195        0.45        
H_COOH        H        0.03968646370926628        0.5468752157564055        0.042610218978102195        0.45        
H_COOH        H        0.23551280538445984        -0.02815612661234642        0.042610218978102195        0.45        
H_COOH        H        0.2420237901336464        0.0813318425846825        0.042610218978102195        0.45        
H_COOH        H        0.22835406591273646        0.1970837728030957        0.042610218978102195        0.45        
H_COOH        H        0.24006503651431674        0.30393815157356135        0.042610218978102195        0.45        
H_COOH        H        0.2908002393310574        0.4375592425992738        0.042610218978102195        0.45        
H_COOH        H        0.28862450680272933        0.5453091358312122        0.042610218978102195        0.45        
H_COOH        H        0.5468632636061342        0.009289248392770002        0.042610218978102195        0.45        
H_COOH        H        0.5089906363848669        0.08151999677009879        0.042610218978102195        0.45        
H_COOH        H        0.48502382787609527        0.19422881064965208        0.042610218978102195        0.45        
H_COOH        H        0.4809383437516912        0.30694292353016445        0.042610218978102195        0.45        
H_COOH        H        0.54243741709303        0.4405636993985232        0.042610218978102195        0.45        
H_COOH        H        0.5363741372734526        0.542367757215242        0.042610218978102195        0.45        
H_COOH        H        0.7113913559051217        -0.0102692983540807        0.042610218978102195        0.45        
H_COOH        H        0.7798943857874078        0.09144748448135832        0.042610218978102195        0.45        
H_COOH        H        0.7251805152035697        0.19890151311033222        0.042610218978102195        0.45        
H_COOH        H        0.7491750104781927        0.3028719555267323        0.042610218978102195        0.45        
H_COOH        H        0.7243039309906426        0.42168499050056146        0.042610218978102195        0.45        
H_COOH        H        0.7114967293403036        0.5451383490917058        0.042610218978102195        0.45        
H_COOH        H        -0.034579294815503536        0.6514285462798575        0.042610218978102195        0.45        
H_COOH        H        0.2796590255304097        0.6468105298365037        0.042610218978102195        0.45        
H_COOH        H        0.4526495016291805        0.6791189474545227        0.042610218978102195        0.45        
H_COOH        H        0.7078650555348603        0.6621927682693656        0.042610218978102195        0.45        
H_COOH        H        -0.046753710406592625        0.7864991779212814        0.042610218978102195        0.45        
H_COOH        H        0.23941175797571976        0.7485308338283845        0.042610218978102195        0.45        
H_COOH        H        0.46569807714363604        0.7622426096482513        0.042610218978102195        0.45        
H_COOH        H        0.7694609917494769        0.751568795530463        0.042610218978102195        0.45        
H_COOH        H        0.040417731941638106        0.8813677937489764        0.042610218978102195        0.45        
H_COOH        H        0.2149915261666627        0.8741200165857319        0.042610218978102195        0.45        
H_COOH        H        0.46175882708806754        0.8781073377936922        0.042610218978102195        0.45        
H_COOH        H        0.7837559474734884        0.872783401412228        0.042610218978102195        0.45        
H_COOH        H        0.011255382071784526        -0.02908612756870527        0.7853808759124088        0.45        
H_COOH        H        -0.04673032206242232        0.11971528175150992        0.7853808759124088        0.45        
H_COOH        H        0.037914600940251175        0.21099641975193986        0.7853808759124088        0.45        
H_COOH        H        -0.019833627018256746        0.3072966384013158        0.7853808759124088        0.45        
H_COOH        H        0.0025977221785492216        0.4140482776135754        0.7853808759124088        0.45        
H_COOH        H        -0.033598620887819196        0.5392895027277839        0.7853808759124088        0.45        
H_COOH        H        0.28060818380195995        -0.019062769935777667        0.7853808759124088        0.45        
H_COOH        H        0.26679131732225714        0.08377575025020012        0.7853808759124088        0.45        
H_COOH        H        0.208742584312776        0.21612772259618343        0.7853808759124088        0.45        
H_COOH        H        0.2505278231876821        0.3028676306383883        0.7853808759124088        0.45        
H_COOH        H        0.2542809621622741        0.4141731719056457        0.7853808759124088        0.45        
H_COOH        H        0.29758596536660514        0.570435018604457        0.7853808759124088        0.45        
H_COOH        H        0.5387785004245407        -0.010027676119522941        0.7853808759124088        0.45        
H_COOH        H        0.46522223677838714        0.0960881107510914        0.7853808759124088        0.45        
H_COOH        H        0.4918611164234836        0.19247145300610569        0.7853808759124088        0.45        
H_COOH        H        0.5338310152675069        0.3173047037938075        0.7853808759124088        0.45        
H_COOH        H        0.5206147507752085        0.4187828961649566        0.7853808759124088        0.45        
H_COOH        H        0.542142122935769        0.5510956373697747        0.7853808759124088        0.45        
H_COOH        H        0.7905967591304726        -0.0072260298028926145        0.7853808759124088        0.45        
H_COOH        H        0.7420185914411701        0.08133274771617903        0.7853808759124088        0.45        
H_COOH        H        0.7024450101108434        0.2366968198307111        0.7853808759124088        0.45        
H_COOH        H        0.7038218809636761        0.3395080913924293        0.7853808759124088        0.45        
H_COOH        H        0.7026309797073563        0.45705028914433693        0.7853808759124088        0.45        
H_COOH        H        0.7390073305505915        0.5264052176961557        0.7853808759124088        0.45        
H_COOH        H        0.047624610605493604        0.6821246850896105        0.7853808759124088        0.45        
H_COOH        H        0.20730632611971034        0.6633059394593885        0.7853808759124088        0.45        
H_COOH        H        0.5130922940300089        0.6380785455036443        0.7853808759124088        0.45        
H_COOH        H        0.7475516387310327        0.6362631588160371        0.7853808759124088        0.45        
H_COOH        H        -0.004124795462709015        0.747492996062906        0.7853808759124088        0.45        
H_COOH        H        0.2613904253783156        0.748725736380362        0.7853808759124088        0.45        
H_COOH        H        0.5400833817778639        0.7697177020558212        0.7853808759124088        0.45        
H_COOH        H        0.7343436690210938        0.7500214616069494        0.7853808759124088        0.45        
H_COOH        H        0.018109651983645416        0.8620855957285756        0.7853808759124088        0.45        
H_COOH        H        0.2856938178445625        0.8748961263099141        0.7853808759124088        0.45        
H_COOH        H        0.5461106860497867        0.8948012190906047        0.7853808759124088        0.45        
H_COOH        H        0.7906616506470117        0.8817711265460307        0.7853808759124088        0.45        
