data_graphite_ortho

_audit_creation_method RASPA-1.0
_audit_creation_date 2012-2-3
_audit_author_name 'David Dubbeldam'

_cell_length_a    31.98    
_cell_length_b    38.34    
_cell_length_c    28.9    
_cell_angle_alpha 90
_cell_angle_beta  90
_cell_angle_gamma 90
_cell_volume      35434.67      

_symmetry_cell_setting          triclinic
_symmetry_space_group_name_Hall 'P 1'
_symmetry_space_group_name_H-M  'P 1'
_symmetry_Int_Tables_number     1

_symmetry_equiv_pos_as_xyz 'x,y,z'

loop_
_atom_site_label
_atom_site_type_symbol
_atom_site_fract_x
_atom_site_fract_y
_atom_site_fract_z
_atom_site_charge
C1        C        0.0        0.018519        0.0        0        
C2        C        0.038462        0.074075        0.0        0        
C3        C        0.0        0.092592        0.0        0        
C4        C        0.038462        0.037037        0.0        0        
C1        C        0.0        0.12963        0.0        0        
C2        C        0.038462        0.185185        0.0        0        
C3        C        0.0        0.203703        0.0        0        
C4        C        0.038462        0.148148        0.0        0        
C1        C        0.0        0.24074099999999998        0.0        0        
C2        C        0.038462        0.296297        0.0        0        
C3        C        0.0        0.314815        0.0        0        
C4        C        0.038462        0.259259        0.0        0        
C1        C        0.0        0.351852        0.0        0        
C2        C        0.038462        0.407408        0.0        0        
C3        C        0.0        0.42592500000000005        0.0        0        
C4        C        0.038462        0.37037        0.0        0        
C1        C        0.0        0.46296300000000007        0.0        0        
C2        C        0.038462        0.518519        0.0        0        
C3        C        0.0        0.537037        0.0        0        
C4        C        0.038462        0.481481        0.0        0        
C1        C        0.0        0.574075        0.0        0        
C2        C        0.038462        0.62963        0.0        0        
C3        C        0.0        0.648148        0.0        0        
C4        C        0.038462        0.592592        0.0        0        
C1        C        0.076923        0.018519        0.0        0        
C2        C        0.115385        0.074075        0.0        0        
C3        C        0.076923        0.092592        0.0        0        
C4        C        0.115385        0.037037        0.0        0        
C1        C        0.076923        0.12963        0.0        0        
C2        C        0.115385        0.185185        0.0        0        
C3        C        0.076923        0.203703        0.0        0        
C4        C        0.115385        0.148148        0.0        0        
C1        C        0.076923        0.24074099999999998        0.0        0        
C2        C        0.115385        0.296297        0.0        0        
C3        C        0.076923        0.314815        0.0        0        
C4        C        0.115385        0.259259        0.0        0        
C1        C        0.076923        0.351852        0.0        0        
C2        C        0.115385        0.407408        0.0        0        
C3        C        0.076923        0.42592500000000005        0.0        0        
C4        C        0.115385        0.37037        0.0        0        
C1        C        0.076923        0.46296300000000007        0.0        0        
C2        C        0.115385        0.518519        0.0        0        
C3        C        0.076923        0.537037        0.0        0        
C4        C        0.115385        0.481481        0.0        0        
C1        C        0.076923        0.574075        0.0        0        
C2        C        0.115385        0.62963        0.0        0        
C3        C        0.076923        0.648148        0.0        0        
C4        C        0.115385        0.592592        0.0        0        
C1        C        0.153846        0.018519        0.0        0        
C2        C        0.192308        0.074075        0.0        0        
C3        C        0.153846        0.092592        0.0        0        
C4        C        0.192308        0.037037        0.0        0        
C1        C        0.153846        0.12963        0.0        0        
C2        C        0.192308        0.185185        0.0        0        
C3        C        0.153846        0.203703        0.0        0        
C4        C        0.192308        0.148148        0.0        0        
C1        C        0.153846        0.24074099999999998        0.0        0        
C2        C        0.192308        0.296297        0.0        0        
C3        C        0.153846        0.314815        0.0        0        
C4        C        0.192308        0.259259        0.0        0        
C1        C        0.153846        0.351852        0.0        0        
C2        C        0.192308        0.407408        0.0        0        
C3        C        0.153846        0.42592500000000005        0.0        0        
C4        C        0.192308        0.37037        0.0        0        
C1        C        0.153846        0.46296300000000007        0.0        0        
C2        C        0.192308        0.518519        0.0        0        
C3        C        0.153846        0.537037        0.0        0        
C4        C        0.192308        0.481481        0.0        0        
C1        C        0.153846        0.574075        0.0        0        
C2        C        0.192308        0.62963        0.0        0        
C3        C        0.153846        0.648148        0.0        0        
C4        C        0.192308        0.592592        0.0        0        
C1        C        0.230769        0.018519        0.0        0        
C2        C        0.269231        0.074075        0.0        0        
C3        C        0.230769        0.092592        0.0        0        
C4        C        0.269231        0.037037        0.0        0        
C1        C        0.230769        0.12963        0.0        0        
C2        C        0.269231        0.185185        0.0        0        
C3        C        0.230769        0.203703        0.0        0        
C4        C        0.269231        0.148148        0.0        0        
C1        C        0.230769        0.24074099999999998        0.0        0        
C2        C        0.269231        0.296297        0.0        0        
C3        C        0.230769        0.314815        0.0        0        
C4        C        0.269231        0.259259        0.0        0        
C1        C        0.230769        0.351852        0.0        0        
C2        C        0.269231        0.407408        0.0        0        
C3        C        0.230769        0.42592500000000005        0.0        0        
C4        C        0.269231        0.37037        0.0        0        
C1        C        0.230769        0.46296300000000007        0.0        0        
C2        C        0.269231        0.518519        0.0        0        
C3        C        0.230769        0.537037        0.0        0        
C4        C        0.269231        0.481481        0.0        0        
C1        C        0.230769        0.574075        0.0        0        
C2        C        0.269231        0.62963        0.0        0        
C3        C        0.230769        0.648148        0.0        0        
C4        C        0.269231        0.592592        0.0        0        
C1        C        0.307692        0.018519        0.0        0        
C2        C        0.346154        0.074075        0.0        0        
C3        C        0.307692        0.092592        0.0        0        
C4        C        0.346154        0.037037        0.0        0        
C1        C        0.307692        0.12963        0.0        0        
C2        C        0.346154        0.185185        0.0        0        
C3        C        0.307692        0.203703        0.0        0        
C4        C        0.346154        0.148148        0.0        0        
C1        C        0.307692        0.24074099999999998        0.0        0        
C2        C        0.346154        0.296297        0.0        0        
C3        C        0.307692        0.314815        0.0        0        
C4        C        0.346154        0.259259        0.0        0        
C1        C        0.307692        0.351852        0.0        0        
C2        C        0.346154        0.407408        0.0        0        
C3        C        0.307692        0.42592500000000005        0.0        0        
C4        C        0.346154        0.37037        0.0        0        
C1        C        0.307692        0.46296300000000007        0.0        0        
C2        C        0.346154        0.518519        0.0        0        
C3        C        0.307692        0.537037        0.0        0        
C4        C        0.346154        0.481481        0.0        0        
C1        C        0.307692        0.574075        0.0        0        
C2        C        0.346154        0.62963        0.0        0        
C3        C        0.307692        0.648148        0.0        0        
C4        C        0.346154        0.592592        0.0        0        
C1        C        0.384615        0.018519        0.0        0        
C2        C        0.423077        0.074075        0.0        0        
C3        C        0.384615        0.092592        0.0        0        
C4        C        0.423077        0.037037        0.0        0        
C1        C        0.384615        0.12963        0.0        0        
C2        C        0.423077        0.185185        0.0        0        
C3        C        0.384615        0.203703        0.0        0        
C4        C        0.423077        0.148148        0.0        0        
C1        C        0.384615        0.24074099999999998        0.0        0        
C2        C        0.423077        0.296297        0.0        0        
C3        C        0.384615        0.314815        0.0        0        
C4        C        0.423077        0.259259        0.0        0        
C1        C        0.384615        0.351852        0.0        0        
C2        C        0.423077        0.407408        0.0        0        
C3        C        0.384615        0.42592500000000005        0.0        0        
C4        C        0.423077        0.37037        0.0        0        
C1        C        0.384615        0.46296300000000007        0.0        0        
C2        C        0.423077        0.518519        0.0        0        
C3        C        0.384615        0.537037        0.0        0        
C4        C        0.423077        0.481481        0.0        0        
C1        C        0.384615        0.574075        0.0        0        
C2        C        0.423077        0.62963        0.0        0        
C3        C        0.384615        0.648148        0.0        0        
C4        C        0.423077        0.592592        0.0        0        
C1        C        0.461538        0.018519        0.0        0        
C2        C        0.5        0.074075        0.0        0        
C3        C        0.461538        0.092592        0.0        0        
C4        C        0.5        0.037037        0.0        0        
C1        C        0.461538        0.12963        0.0        0        
C2        C        0.5        0.185185        0.0        0        
C3        C        0.461538        0.203703        0.0        0        
C4        C        0.5        0.148148        0.0        0        
C1        C        0.461538        0.24074099999999998        0.0        0        
C2        C        0.5        0.296297        0.0        0        
C3        C        0.461538        0.314815        0.0        0        
C4        C        0.5        0.259259        0.0        0        
C1        C        0.461538        0.351852        0.0        0        
C2        C        0.5        0.407408        0.0        0        
C3        C        0.461538        0.42592500000000005        0.0        0        
C4        C        0.5        0.37037        0.0        0        
C1        C        0.461538        0.46296300000000007        0.0        0        
C2        C        0.5        0.518519        0.0        0        
C3        C        0.461538        0.537037        0.0        0        
C4        C        0.5        0.481481        0.0        0        
C1        C        0.461538        0.574075        0.0        0        
C2        C        0.5        0.62963        0.0        0        
C3        C        0.461538        0.648148        0.0        0        
C4        C        0.5        0.592592        0.0        0        
C1        C        0.538462        0.018519        0.0        0        
C2        C        0.576923        0.074075        0.0        0        
C3        C        0.538462        0.092592        0.0        0        
C4        C        0.576923        0.037037        0.0        0        
C1        C        0.538462        0.12963        0.0        0        
C2        C        0.576923        0.185185        0.0        0        
C3        C        0.538462        0.203703        0.0        0        
C4        C        0.576923        0.148148        0.0        0        
C1        C        0.538462        0.24074099999999998        0.0        0        
C2        C        0.576923        0.296297        0.0        0        
C3        C        0.538462        0.314815        0.0        0        
C4        C        0.576923        0.259259        0.0        0        
C1        C        0.538462        0.351852        0.0        0        
C2        C        0.576923        0.407408        0.0        0        
C3        C        0.538462        0.42592500000000005        0.0        0        
C4        C        0.576923        0.37037        0.0        0        
C1        C        0.538462        0.46296300000000007        0.0        0        
C2        C        0.576923        0.518519        0.0        0        
C3        C        0.538462        0.537037        0.0        0        
C4        C        0.576923        0.481481        0.0        0        
C1        C        0.538462        0.574075        0.0        0        
C2        C        0.576923        0.62963        0.0        0        
C3        C        0.538462        0.648148        0.0        0        
C4        C        0.576923        0.592592        0.0        0        
C1        C        0.615385        0.018519        0.0        0        
C2        C        0.653846        0.074075        0.0        0        
C3        C        0.615385        0.092592        0.0        0        
C4        C        0.653846        0.037037        0.0        0        
C1        C        0.615385        0.12963        0.0        0        
C2        C        0.653846        0.185185        0.0        0        
C3        C        0.615385        0.203703        0.0        0        
C4        C        0.653846        0.148148        0.0        0        
C1        C        0.615385        0.24074099999999998        0.0        0        
C2        C        0.653846        0.296297        0.0        0        
C3        C        0.615385        0.314815        0.0        0        
C4        C        0.653846        0.259259        0.0        0        
C1        C        0.615385        0.351852        0.0        0        
C2        C        0.653846        0.407408        0.0        0        
C3        C        0.615385        0.42592500000000005        0.0        0        
C4        C        0.653846        0.37037        0.0        0        
C1        C        0.615385        0.46296300000000007        0.0        0        
C2        C        0.653846        0.518519        0.0        0        
C3        C        0.615385        0.537037        0.0        0        
C4        C        0.653846        0.481481        0.0        0        
C1        C        0.615385        0.574075        0.0        0        
C2        C        0.653846        0.62963        0.0        0        
C3        C        0.615385        0.648148        0.0        0        
C4        C        0.653846        0.592592        0.0        0        
C1        C        0.692308        0.018519        0.0        0        
C2        C        0.730769        0.074075        0.0        0        
C3        C        0.692308        0.092592        0.0        0        
C4        C        0.730769        0.037037        0.0        0        
C1        C        0.692308        0.12963        0.0        0        
C2        C        0.730769        0.185185        0.0        0        
C3        C        0.692308        0.203703        0.0        0        
C4        C        0.730769        0.148148        0.0        0        
C1        C        0.692308        0.24074099999999998        0.0        0        
C2        C        0.730769        0.296297        0.0        0        
C3        C        0.692308        0.314815        0.0        0        
C4        C        0.730769        0.259259        0.0        0        
C1        C        0.692308        0.351852        0.0        0        
C2        C        0.730769        0.407408        0.0        0        
C3        C        0.692308        0.42592500000000005        0.0        0        
C4        C        0.730769        0.37037        0.0        0        
C1        C        0.692308        0.46296300000000007        0.0        0        
C2        C        0.730769        0.518519        0.0        0        
C3        C        0.692308        0.537037        0.0        0        
C4        C        0.730769        0.481481        0.0        0        
C1        C        0.692308        0.574075        0.0        0        
C2        C        0.730769        0.62963        0.0        0        
C3        C        0.692308        0.648148        0.0        0        
C4        C        0.730769        0.592592        0.0        0        
C1        C        0.769231        0.018519        0.0        0        
C2        C        0.807692        0.074075        0.0        0        
C3        C        0.769231        0.092592        0.0        0        
C4        C        0.807692        0.037037        0.0        0        
C1        C        0.769231        0.12963        0.0        0        
C2        C        0.807692        0.185185        0.0        0        
C3        C        0.769231        0.203703        0.0        0        
C4        C        0.807692        0.148148        0.0        0        
C1        C        0.769231        0.24074099999999998        0.0        0        
C2        C        0.807692        0.296297        0.0        0        
C3        C        0.769231        0.314815        0.0        0        
C4        C        0.807692        0.259259        0.0        0        
C1        C        0.769231        0.351852        0.0        0        
C2        C        0.807692        0.407408        0.0        0        
C3        C        0.769231        0.42592500000000005        0.0        0        
C4        C        0.807692        0.37037        0.0        0        
C1        C        0.769231        0.46296300000000007        0.0        0        
C2        C        0.807692        0.518519        0.0        0        
C3        C        0.769231        0.537037        0.0        0        
C4        C        0.807692        0.481481        0.0        0        
C1        C        0.769231        0.574075        0.0        0        
C2        C        0.807692        0.62963        0.0        0        
C3        C        0.769231        0.648148        0.0        0        
C4        C        0.807692        0.592592        0.0        0        
C1        C        0.846154        0.018519        0.0        0        
C2        C        0.884615        0.074075        0.0        0        
C3        C        0.846154        0.092592        0.0        0        
C4        C        0.884615        0.037037        0.0        0        
C1        C        0.846154        0.12963        0.0        0        
C2        C        0.884615        0.185185        0.0        0        
C3        C        0.846154        0.203703        0.0        0        
C4        C        0.884615        0.148148        0.0        0        
C1        C        0.846154        0.24074099999999998        0.0        0        
C2        C        0.884615        0.296297        0.0        0        
C3        C        0.846154        0.314815        0.0        0        
C4        C        0.884615        0.259259        0.0        0        
C1        C        0.846154        0.351852        0.0        0        
C2        C        0.884615        0.407408        0.0        0        
C3        C        0.846154        0.42592500000000005        0.0        0        
C4        C        0.884615        0.37037        0.0        0        
C1        C        0.846154        0.46296300000000007        0.0        0        
C2        C        0.884615        0.518519        0.0        0        
C3        C        0.846154        0.537037        0.0        0        
C4        C        0.884615        0.481481        0.0        0        
C1        C        0.846154        0.574075        0.0        0        
C2        C        0.884615        0.62963        0.0        0        
C3        C        0.846154        0.648148        0.0        0        
C4        C        0.884615        0.592592        0.0        0        
C1        C        0.923077        0.018519        0.0        0        
C2        C        0.961538        0.074075        0.0        0        
C3        C        0.923077        0.092592        0.0        0        
C4        C        0.961538        0.037037        0.0        0        
C1        C        0.923077        0.12963        0.0        0        
C2        C        0.961538        0.185185        0.0        0        
C3        C        0.923077        0.203703        0.0        0        
C4        C        0.961538        0.148148        0.0        0        
C1        C        0.923077        0.24074099999999998        0.0        0        
C2        C        0.961538        0.296297        0.0        0        
C3        C        0.923077        0.314815        0.0        0        
C4        C        0.961538        0.259259        0.0        0        
C1        C        0.923077        0.351852        0.0        0        
C2        C        0.961538        0.407408        0.0        0        
C3        C        0.923077        0.42592500000000005        0.0        0        
C4        C        0.961538        0.37037        0.0        0        
C1        C        0.923077        0.46296300000000007        0.0        0        
C2        C        0.961538        0.518519        0.0        0        
C3        C        0.923077        0.537037        0.0        0        
C4        C        0.961538        0.481481        0.0        0        
C1        C        0.923077        0.574075        0.0        0        
C2        C        0.961538        0.62963        0.0        0        
C3        C        0.923077        0.648148        0.0        0        
C4        C        0.961538        0.592592        0.0        0        
C1        C        1.0        0.018519        0.0        0        
C2        C        1.038462        0.074075        0.0        0        
C3        C        1.0        0.092592        0.0        0        
C4        C        1.038462        0.037037        0.0        0        
C1        C        1.0        0.12963        0.0        0        
C2        C        1.038462        0.185185        0.0        0        
C3        C        1.0        0.203703        0.0        0        
C4        C        1.038462        0.148148        0.0        0        
C1        C        1.0        0.24074099999999998        0.0        0        
C2        C        1.038462        0.296297        0.0        0        
C3        C        1.0        0.314815        0.0        0        
C4        C        1.038462        0.259259        0.0        0        
C1        C        1.0        0.351852        0.0        0        
C2        C        1.038462        0.407408        0.0        0        
C3        C        1.0        0.42592500000000005        0.0        0        
C4        C        1.038462        0.37037        0.0        0        
C1        C        1.0        0.46296300000000007        0.0        0        
C2        C        1.038462        0.518519        0.0        0        
C3        C        1.0        0.537037        0.0        0        
C4        C        1.038462        0.481481        0.0        0        
C1        C        1.0        0.574075        0.0        0        
C2        C        1.038462        0.62963        0.0        0        
C3        C        1.0        0.648148        0.0        0        
C4        C        1.038462        0.592592        0.0        0        
C1        C        0.0        0.685186        0.0        0        
C1        C        0.076923        0.685186        0.0        0        
C1        C        0.153846        0.685186        0.0        0        
C1        C        0.230769        0.685186        0.0        0        
C1        C        0.307692        0.685186        0.0        0        
C1        C        0.384615        0.685186        0.0        0        
C1        C        0.461538        0.685186        0.0        0        
C1        C        0.538462        0.685186        0.0        0        
C1        C        0.615385        0.685186        0.0        0        
C1        C        0.692308        0.685186        0.0        0        
C1        C        0.769231        0.685186        0.0        0        
C1        C        0.846154        0.685186        0.0        0        
C1        C        0.923077        0.685186        0.0        0        
C1        C        1.0        0.685186        0.0        0        
C2        C        0.038462        0.740741        0.0        0        
C2        C        0.115385        0.740741        0.0        0        
C2        C        0.192308        0.740741        0.0        0        
C2        C        0.269231        0.740741        0.0        0        
C2        C        0.346154        0.740741        0.0        0        
C2        C        0.423077        0.740741        0.0        0        
C2        C        0.5        0.740741        0.0        0        
C2        C        0.576923        0.740741        0.0        0        
C2        C        0.653846        0.740741        0.0        0        
C2        C        0.730769        0.740741        0.0        0        
C2        C        0.807692        0.740741        0.0        0        
C2        C        0.884615        0.740741        0.0        0        
C2        C        0.961538        0.740741        0.0        0        
C2        C        1.038462        0.740741        0.0        0        
C3        C        0.0        0.759259        0.0        0        
C3        C        0.076923        0.759259        0.0        0        
C3        C        0.153846        0.759259        0.0        0        
C3        C        0.230769        0.759259        0.0        0        
C3        C        0.307692        0.759259        0.0        0        
C3        C        0.384615        0.759259        0.0        0        
C3        C        0.461538        0.759259        0.0        0        
C3        C        0.538462        0.759259        0.0        0        
C3        C        0.615385        0.759259        0.0        0        
C3        C        0.692308        0.759259        0.0        0        
C3        C        0.769231        0.759259        0.0        0        
C3        C        0.846154        0.759259        0.0        0        
C3        C        0.923077        0.759259        0.0        0        
C3        C        1.0        0.759259        0.0        0        
C4        C        0.038462        0.703703        0.0        0        
C4        C        0.115385        0.703703        0.0        0        
C4        C        0.192308        0.703703        0.0        0        
C4        C        0.269231        0.703703        0.0        0        
C4        C        0.346154        0.703703        0.0        0        
C4        C        0.423077        0.703703        0.0        0        
C4        C        0.5        0.703703        0.0        0        
C4        C        0.576923        0.703703        0.0        0        
C4        C        0.653846        0.703703        0.0        0        
C4        C        0.730769        0.703703        0.0        0        
C4        C        0.807692        0.703703        0.0        0        
C4        C        0.884615        0.703703        0.0        0        
C4        C        0.961538        0.703703        0.0        0        
C4        C        1.038462        0.703703        0.0        0        
C1        C        0.0        0.796297        0.0        0        
C1        C        0.076923        0.796297        0.0        0        
C1        C        0.153846        0.796297        0.0        0        
C1        C        0.230769        0.796297        0.0        0        
C1        C        0.307692        0.796297        0.0        0        
C1        C        0.384615        0.796297        0.0        0        
C1        C        0.461538        0.796297        0.0        0        
C1        C        0.538462        0.796297        0.0        0        
C1        C        0.615385        0.796297        0.0        0        
C1        C        0.692308        0.796297        0.0        0        
C1        C        0.769231        0.796297        0.0        0        
C1        C        0.846154        0.796297        0.0        0        
C1        C        0.923077        0.796297        0.0        0        
C1        C        1.0        0.796297        0.0        0        
C2        C        0.038462        0.851852        0.0        0        
C2        C        0.115385        0.851852        0.0        0        
C2        C        0.192308        0.851852        0.0        0        
C2        C        0.269231        0.851852        0.0        0        
C2        C        0.346154        0.851852        0.0        0        
C2        C        0.423077        0.851852        0.0        0        
C2        C        0.5        0.851852        0.0        0        
C2        C        0.576923        0.851852        0.0        0        
C2        C        0.653846        0.851852        0.0        0        
C2        C        0.730769        0.851852        0.0        0        
C2        C        0.807692        0.851852        0.0        0        
C2        C        0.884615        0.851852        0.0        0        
C2        C        0.961538        0.851852        0.0        0        
C2        C        1.038462        0.851852        0.0        0        
C3        C        0.0        0.87037        0.0        0        
C3        C        0.076923        0.87037        0.0        0        
C3        C        0.153846        0.87037        0.0        0        
C3        C        0.230769        0.87037        0.0        0        
C3        C        0.307692        0.87037        0.0        0        
C3        C        0.384615        0.87037        0.0        0        
C3        C        0.461538        0.87037        0.0        0        
C3        C        0.538462        0.87037        0.0        0        
C3        C        0.615385        0.87037        0.0        0        
C3        C        0.692308        0.87037        0.0        0        
C3        C        0.769231        0.87037        0.0        0        
C3        C        0.846154        0.87037        0.0        0        
C3        C        0.923077        0.87037        0.0        0        
C3        C        1.0        0.87037        0.0        0        
C4        C        0.038462        0.814814        0.0        0        
C4        C        0.115385        0.814814        0.0        0        
C4        C        0.192308        0.814814        0.0        0        
C4        C        0.269231        0.814814        0.0        0        
C4        C        0.346154        0.814814        0.0        0        
C4        C        0.423077        0.814814        0.0        0        
C4        C        0.5        0.814814        0.0        0        
C4        C        0.576923        0.814814        0.0        0        
C4        C        0.653846        0.814814        0.0        0        
C4        C        0.730769        0.814814        0.0        0        
C4        C        0.807692        0.814814        0.0        0        
C4        C        0.884615        0.814814        0.0        0        
C4        C        0.961538        0.814814        0.0        0        
C4        C        1.038462        0.814814        0.0        0        
C1        C        0.0        0.907408        0.0        0        
C1        C        0.076923        0.907408        0.0        0        
C1        C        0.153846        0.907408        0.0        0        
C1        C        0.230769        0.907408        0.0        0        
C1        C        0.307692        0.907408        0.0        0        
C1        C        0.384615        0.907408        0.0        0        
C1        C        0.461538        0.907408        0.0        0        
C1        C        0.538462        0.907408        0.0        0        
C1        C        0.615385        0.907408        0.0        0        
C1        C        0.692308        0.907408        0.0        0        
C1        C        0.769231        0.907408        0.0        0        
C1        C        0.846154        0.907408        0.0        0        
C1        C        0.923077        0.907408        0.0        0        
C1        C        1.0        0.907408        0.0        0        
C2        C        0.038462        0.962963        0.0        0        
C2        C        0.115385        0.962963        0.0        0        
C2        C        0.192308        0.962963        0.0        0        
C2        C        0.269231        0.962963        0.0        0        
C2        C        0.346154        0.962963        0.0        0        
C2        C        0.423077        0.962963        0.0        0        
C2        C        0.5        0.962963        0.0        0        
C2        C        0.576923        0.962963        0.0        0        
C2        C        0.653846        0.962963        0.0        0        
C2        C        0.730769        0.962963        0.0        0        
C2        C        0.807692        0.962963        0.0        0        
C2        C        0.884615        0.962963        0.0        0        
C2        C        0.961538        0.962963        0.0        0        
C2        C        1.038462        0.962963        0.0        0        
C3        C        0.0        0.9814809999999999        0.0        0        
C3        C        0.076923        0.9814809999999999        0.0        0        
C3        C        0.153846        0.9814809999999999        0.0        0        
C3        C        0.230769        0.9814809999999999        0.0        0        
C3        C        0.307692        0.9814809999999999        0.0        0        
C3        C        0.384615        0.9814809999999999        0.0        0        
C3        C        0.461538        0.9814809999999999        0.0        0        
C3        C        0.538462        0.9814809999999999        0.0        0        
C3        C        0.615385        0.9814809999999999        0.0        0        
C3        C        0.692308        0.9814809999999999        0.0        0        
C3        C        0.769231        0.9814809999999999        0.0        0        
C3        C        0.846154        0.9814809999999999        0.0        0        
C3        C        0.923077        0.9814809999999999        0.0        0        
C3        C        1.0        0.9814809999999999        0.0        0        
C4        C        0.038462        0.925925        0.0        0        
C4        C        0.115385        0.925925        0.0        0        
C4        C        0.192308        0.925925        0.0        0        
C4        C        0.269231        0.925925        0.0        0        
C4        C        0.346154        0.925925        0.0        0        
C4        C        0.423077        0.925925        0.0        0        
C4        C        0.5        0.925925        0.0        0        
C4        C        0.576923        0.925925        0.0        0        
C4        C        0.653846        0.925925        0.0        0        
C4        C        0.730769        0.925925        0.0        0        
C4        C        0.807692        0.925925        0.0        0        
C4        C        0.884615        0.925925        0.0        0        
C4        C        0.961538        0.925925        0.0        0        
C4        C        1.038462        0.925925        0.0        0        
C1        C        0.0        0.018519        0.115917        0        
C2        C        0.038462        0.074075        0.115917        0        
C3        C        0.0        0.092592        0.115917        0        
C4        C        0.038462        0.037037        0.115917        0        
C1        C        0.0        0.12963        0.115917        0        
C2        C        0.038462        0.185185        0.115917        0        
C3        C        0.0        0.203703        0.115917        0        
C4        C        0.038462        0.148148        0.115917        0        
C1        C        0.0        0.24074099999999998        0.115917        0        
C2        C        0.038462        0.296297        0.115917        0        
C3        C        0.0        0.314815        0.115917        0        
C4        C        0.038462        0.259259        0.115917        0        
C1        C        0.0        0.351852        0.115917        0        
C2        C        0.038462        0.407408        0.115917        0        
C3        C        0.0        0.42592500000000005        0.115917        0        
C4        C        0.038462        0.37037        0.115917        0        
C1        C        0.0        0.46296300000000007        0.115917        0        
C2        C        0.038462        0.518519        0.115917        0        
C3        C        0.0        0.537037        0.115917        0        
C4        C        0.038462        0.481481        0.115917        0        
C1        C        0.0        0.574075        0.115917        0        
C2        C        0.038462        0.62963        0.115917        0        
C3        C        0.0        0.648148        0.115917        0        
C4        C        0.038462        0.592592        0.115917        0        
C1        C        0.076923        0.018519        0.115917        0        
C2        C        0.115385        0.074075        0.115917        0        
C3        C        0.076923        0.092592        0.115917        0        
C4        C        0.115385        0.037037        0.115917        0        
C1        C        0.076923        0.12963        0.115917        0        
C2        C        0.115385        0.185185        0.115917        0        
C3        C        0.076923        0.203703        0.115917        0        
C4        C        0.115385        0.148148        0.115917        0        
C1        C        0.076923        0.24074099999999998        0.115917        0        
C2        C        0.115385        0.296297        0.115917        0        
C3        C        0.076923        0.314815        0.115917        0        
C4        C        0.115385        0.259259        0.115917        0        
C1        C        0.076923        0.351852        0.115917        0        
C2        C        0.115385        0.407408        0.115917        0        
C3        C        0.076923        0.42592500000000005        0.115917        0        
C4        C        0.115385        0.37037        0.115917        0        
C1        C        0.076923        0.46296300000000007        0.115917        0        
C2        C        0.115385        0.518519        0.115917        0        
C3        C        0.076923        0.537037        0.115917        0        
C4        C        0.115385        0.481481        0.115917        0        
C1        C        0.076923        0.574075        0.115917        0        
C2        C        0.115385        0.62963        0.115917        0        
C3        C        0.076923        0.648148        0.115917        0        
C4        C        0.115385        0.592592        0.115917        0        
C1        C        0.153846        0.018519        0.115917        0        
C2        C        0.192308        0.074075        0.115917        0        
C3        C        0.153846        0.092592        0.115917        0        
C4        C        0.192308        0.037037        0.115917        0        
C1        C        0.153846        0.12963        0.115917        0        
C2        C        0.192308        0.185185        0.115917        0        
C3        C        0.153846        0.203703        0.115917        0        
C4        C        0.192308        0.148148        0.115917        0        
C1        C        0.153846        0.24074099999999998        0.115917        0        
C2        C        0.192308        0.296297        0.115917        0        
C3        C        0.153846        0.314815        0.115917        0        
C4        C        0.192308        0.259259        0.115917        0        
C1        C        0.153846        0.351852        0.115917        0        
C2        C        0.192308        0.407408        0.115917        0        
C3        C        0.153846        0.42592500000000005        0.115917        0        
C4        C        0.192308        0.37037        0.115917        0        
C1        C        0.153846        0.46296300000000007        0.115917        0        
C2        C        0.192308        0.518519        0.115917        0        
C3        C        0.153846        0.537037        0.115917        0        
C4        C        0.192308        0.481481        0.115917        0        
C1        C        0.153846        0.574075        0.115917        0        
C2        C        0.192308        0.62963        0.115917        0        
C3        C        0.153846        0.648148        0.115917        0        
C4        C        0.192308        0.592592        0.115917        0        
C1        C        0.230769        0.018519        0.115917        0        
C2        C        0.269231        0.074075        0.115917        0        
C3        C        0.230769        0.092592        0.115917        0        
C4        C        0.269231        0.037037        0.115917        0        
C1        C        0.230769        0.12963        0.115917        0        
C2        C        0.269231        0.185185        0.115917        0        
C3        C        0.230769        0.203703        0.115917        0        
C4        C        0.269231        0.148148        0.115917        0        
C1        C        0.230769        0.24074099999999998        0.115917        0        
C2        C        0.269231        0.296297        0.115917        0        
C3        C        0.230769        0.314815        0.115917        0        
C4        C        0.269231        0.259259        0.115917        0        
C1        C        0.230769        0.351852        0.115917        0        
C2        C        0.269231        0.407408        0.115917        0        
C3        C        0.230769        0.42592500000000005        0.115917        0        
C4        C        0.269231        0.37037        0.115917        0        
C1        C        0.230769        0.46296300000000007        0.115917        0        
C2        C        0.269231        0.518519        0.115917        0        
C3        C        0.230769        0.537037        0.115917        0        
C4        C        0.269231        0.481481        0.115917        0        
C1        C        0.230769        0.574075        0.115917        0        
C2        C        0.269231        0.62963        0.115917        0        
C3        C        0.230769        0.648148        0.115917        0        
C4        C        0.269231        0.592592        0.115917        0        
C1        C        0.307692        0.018519        0.115917        0        
C2        C        0.346154        0.074075        0.115917        0        
C3        C        0.307692        0.092592        0.115917        0        
C4        C        0.346154        0.037037        0.115917        0        
C1        C        0.307692        0.12963        0.115917        0        
C2        C        0.346154        0.185185        0.115917        0        
C3        C        0.307692        0.203703        0.115917        0        
C4        C        0.346154        0.148148        0.115917        0        
C1        C        0.307692        0.24074099999999998        0.115917        0        
C2        C        0.346154        0.296297        0.115917        0        
C3        C        0.307692        0.314815        0.115917        0        
C4        C        0.346154        0.259259        0.115917        0        
C1        C        0.307692        0.351852        0.115917        0        
C2        C        0.346154        0.407408        0.115917        0        
C3        C        0.307692        0.42592500000000005        0.115917        0        
C4        C        0.346154        0.37037        0.115917        0        
C1        C        0.307692        0.46296300000000007        0.115917        0        
C2        C        0.346154        0.518519        0.115917        0        
C3        C        0.307692        0.537037        0.115917        0        
C4        C        0.346154        0.481481        0.115917        0        
C1        C        0.307692        0.574075        0.115917        0        
C2        C        0.346154        0.62963        0.115917        0        
C3        C        0.307692        0.648148        0.115917        0        
C4        C        0.346154        0.592592        0.115917        0        
C1        C        0.384615        0.018519        0.115917        0        
C2        C        0.423077        0.074075        0.115917        0        
C3        C        0.384615        0.092592        0.115917        0        
C4        C        0.423077        0.037037        0.115917        0        
C1        C        0.384615        0.12963        0.115917        0        
C2        C        0.423077        0.185185        0.115917        0        
C3        C        0.384615        0.203703        0.115917        0        
C4        C        0.423077        0.148148        0.115917        0        
C1        C        0.384615        0.24074099999999998        0.115917        0        
C2        C        0.423077        0.296297        0.115917        0        
C3        C        0.384615        0.314815        0.115917        0        
C4        C        0.423077        0.259259        0.115917        0        
C1        C        0.384615        0.351852        0.115917        0        
C2        C        0.423077        0.407408        0.115917        0        
C3        C        0.384615        0.42592500000000005        0.115917        0        
C4        C        0.423077        0.37037        0.115917        0        
C1        C        0.384615        0.46296300000000007        0.115917        0        
C2        C        0.423077        0.518519        0.115917        0        
C3        C        0.384615        0.537037        0.115917        0        
C4        C        0.423077        0.481481        0.115917        0        
C1        C        0.384615        0.574075        0.115917        0        
C2        C        0.423077        0.62963        0.115917        0        
C3        C        0.384615        0.648148        0.115917        0        
C4        C        0.423077        0.592592        0.115917        0        
C1        C        0.461538        0.018519        0.115917        0        
C2        C        0.5        0.074075        0.115917        0        
C3        C        0.461538        0.092592        0.115917        0        
C4        C        0.5        0.037037        0.115917        0        
C1        C        0.461538        0.12963        0.115917        0        
C2        C        0.5        0.185185        0.115917        0        
C3        C        0.461538        0.203703        0.115917        0        
C4        C        0.5        0.148148        0.115917        0        
C1        C        0.461538        0.24074099999999998        0.115917        0        
C2        C        0.5        0.296297        0.115917        0        
C3        C        0.461538        0.314815        0.115917        0        
C4        C        0.5        0.259259        0.115917        0        
C1        C        0.461538        0.351852        0.115917        0        
C2        C        0.5        0.407408        0.115917        0        
C3        C        0.461538        0.42592500000000005        0.115917        0        
C4        C        0.5        0.37037        0.115917        0        
C1        C        0.461538        0.46296300000000007        0.115917        0        
C2        C        0.5        0.518519        0.115917        0        
C3        C        0.461538        0.537037        0.115917        0        
C4        C        0.5        0.481481        0.115917        0        
C1        C        0.461538        0.574075        0.115917        0        
C2        C        0.5        0.62963        0.115917        0        
C3        C        0.461538        0.648148        0.115917        0        
C4        C        0.5        0.592592        0.115917        0        
C1        C        0.538462        0.018519        0.115917        0        
C2        C        0.576923        0.074075        0.115917        0        
C3        C        0.538462        0.092592        0.115917        0        
C4        C        0.576923        0.037037        0.115917        0        
C1        C        0.538462        0.12963        0.115917        0        
C2        C        0.576923        0.185185        0.115917        0        
C3        C        0.538462        0.203703        0.115917        0        
C4        C        0.576923        0.148148        0.115917        0        
C1        C        0.538462        0.24074099999999998        0.115917        0        
C2        C        0.576923        0.296297        0.115917        0        
C3        C        0.538462        0.314815        0.115917        0        
C4        C        0.576923        0.259259        0.115917        0        
C1        C        0.538462        0.351852        0.115917        0        
C2        C        0.576923        0.407408        0.115917        0        
C3        C        0.538462        0.42592500000000005        0.115917        0        
C4        C        0.576923        0.37037        0.115917        0        
C1        C        0.538462        0.46296300000000007        0.115917        0        
C2        C        0.576923        0.518519        0.115917        0        
C3        C        0.538462        0.537037        0.115917        0        
C4        C        0.576923        0.481481        0.115917        0        
C1        C        0.538462        0.574075        0.115917        0        
C2        C        0.576923        0.62963        0.115917        0        
C3        C        0.538462        0.648148        0.115917        0        
C4        C        0.576923        0.592592        0.115917        0        
C1        C        0.615385        0.018519        0.115917        0        
C2        C        0.653846        0.074075        0.115917        0        
C3        C        0.615385        0.092592        0.115917        0        
C4        C        0.653846        0.037037        0.115917        0        
C1        C        0.615385        0.12963        0.115917        0        
C2        C        0.653846        0.185185        0.115917        0        
C3        C        0.615385        0.203703        0.115917        0        
C4        C        0.653846        0.148148        0.115917        0        
C1        C        0.615385        0.24074099999999998        0.115917        0        
C2        C        0.653846        0.296297        0.115917        0        
C3        C        0.615385        0.314815        0.115917        0        
C4        C        0.653846        0.259259        0.115917        0        
C1        C        0.615385        0.351852        0.115917        0        
C2        C        0.653846        0.407408        0.115917        0        
C3        C        0.615385        0.42592500000000005        0.115917        0        
C4        C        0.653846        0.37037        0.115917        0        
C1        C        0.615385        0.46296300000000007        0.115917        0        
C2        C        0.653846        0.518519        0.115917        0        
C3        C        0.615385        0.537037        0.115917        0        
C4        C        0.653846        0.481481        0.115917        0        
C1        C        0.615385        0.574075        0.115917        0        
C2        C        0.653846        0.62963        0.115917        0        
C3        C        0.615385        0.648148        0.115917        0        
C4        C        0.653846        0.592592        0.115917        0        
C1        C        0.692308        0.018519        0.115917        0        
C2        C        0.730769        0.074075        0.115917        0        
C3        C        0.692308        0.092592        0.115917        0        
C4        C        0.730769        0.037037        0.115917        0        
C1        C        0.692308        0.12963        0.115917        0        
C2        C        0.730769        0.185185        0.115917        0        
C3        C        0.692308        0.203703        0.115917        0        
C4        C        0.730769        0.148148        0.115917        0        
C1        C        0.692308        0.24074099999999998        0.115917        0        
C2        C        0.730769        0.296297        0.115917        0        
C3        C        0.692308        0.314815        0.115917        0        
C4        C        0.730769        0.259259        0.115917        0        
C1        C        0.692308        0.351852        0.115917        0        
C2        C        0.730769        0.407408        0.115917        0        
C3        C        0.692308        0.42592500000000005        0.115917        0        
C4        C        0.730769        0.37037        0.115917        0        
C1        C        0.692308        0.46296300000000007        0.115917        0        
C2        C        0.730769        0.518519        0.115917        0        
C3        C        0.692308        0.537037        0.115917        0        
C4        C        0.730769        0.481481        0.115917        0        
C1        C        0.692308        0.574075        0.115917        0        
C2        C        0.730769        0.62963        0.115917        0        
C3        C        0.692308        0.648148        0.115917        0        
C4        C        0.730769        0.592592        0.115917        0        
C1        C        0.769231        0.018519        0.115917        0        
C2        C        0.807692        0.074075        0.115917        0        
C3        C        0.769231        0.092592        0.115917        0        
C4        C        0.807692        0.037037        0.115917        0        
C1        C        0.769231        0.12963        0.115917        0        
C2        C        0.807692        0.185185        0.115917        0        
C3        C        0.769231        0.203703        0.115917        0        
C4        C        0.807692        0.148148        0.115917        0        
C1        C        0.769231        0.24074099999999998        0.115917        0        
C2        C        0.807692        0.296297        0.115917        0        
C3        C        0.769231        0.314815        0.115917        0        
C4        C        0.807692        0.259259        0.115917        0        
C1        C        0.769231        0.351852        0.115917        0        
C2        C        0.807692        0.407408        0.115917        0        
C3        C        0.769231        0.42592500000000005        0.115917        0        
C4        C        0.807692        0.37037        0.115917        0        
C1        C        0.769231        0.46296300000000007        0.115917        0        
C2        C        0.807692        0.518519        0.115917        0        
C3        C        0.769231        0.537037        0.115917        0        
C4        C        0.807692        0.481481        0.115917        0        
C1        C        0.769231        0.574075        0.115917        0        
C2        C        0.807692        0.62963        0.115917        0        
C3        C        0.769231        0.648148        0.115917        0        
C4        C        0.807692        0.592592        0.115917        0        
C1        C        0.846154        0.018519        0.115917        0        
C2        C        0.884615        0.074075        0.115917        0        
C3        C        0.846154        0.092592        0.115917        0        
C4        C        0.884615        0.037037        0.115917        0        
C1        C        0.846154        0.12963        0.115917        0        
C2        C        0.884615        0.185185        0.115917        0        
C3        C        0.846154        0.203703        0.115917        0        
C4        C        0.884615        0.148148        0.115917        0        
C1        C        0.846154        0.24074099999999998        0.115917        0        
C2        C        0.884615        0.296297        0.115917        0        
C3        C        0.846154        0.314815        0.115917        0        
C4        C        0.884615        0.259259        0.115917        0        
C1        C        0.846154        0.351852        0.115917        0        
C2        C        0.884615        0.407408        0.115917        0        
C3        C        0.846154        0.42592500000000005        0.115917        0        
C4        C        0.884615        0.37037        0.115917        0        
C1        C        0.846154        0.46296300000000007        0.115917        0        
C2        C        0.884615        0.518519        0.115917        0        
C3        C        0.846154        0.537037        0.115917        0        
C4        C        0.884615        0.481481        0.115917        0        
C1        C        0.846154        0.574075        0.115917        0        
C2        C        0.884615        0.62963        0.115917        0        
C3        C        0.846154        0.648148        0.115917        0        
C4        C        0.884615        0.592592        0.115917        0        
C1        C        0.923077        0.018519        0.115917        0        
C2        C        0.961538        0.074075        0.115917        0        
C3        C        0.923077        0.092592        0.115917        0        
C4        C        0.961538        0.037037        0.115917        0        
C1        C        0.923077        0.12963        0.115917        0        
C2        C        0.961538        0.185185        0.115917        0        
C3        C        0.923077        0.203703        0.115917        0        
C4        C        0.961538        0.148148        0.115917        0        
C1        C        0.923077        0.24074099999999998        0.115917        0        
C2        C        0.961538        0.296297        0.115917        0        
C3        C        0.923077        0.314815        0.115917        0        
C4        C        0.961538        0.259259        0.115917        0        
C1        C        0.923077        0.351852        0.115917        0        
C2        C        0.961538        0.407408        0.115917        0        
C3        C        0.923077        0.42592500000000005        0.115917        0        
C4        C        0.961538        0.37037        0.115917        0        
C1        C        0.923077        0.46296300000000007        0.115917        0        
C2        C        0.961538        0.518519        0.115917        0        
C3        C        0.923077        0.537037        0.115917        0        
C4        C        0.961538        0.481481        0.115917        0        
C1        C        0.923077        0.574075        0.115917        0        
C2        C        0.961538        0.62963        0.115917        0        
C3        C        0.923077        0.648148        0.115917        0        
C4        C        0.961538        0.592592        0.115917        0        
C1        C        1.0        0.018519        0.115917        0        
C2        C        1.038462        0.074075        0.115917        0        
C3        C        1.0        0.092592        0.115917        0        
C4        C        1.038462        0.037037        0.115917        0        
C1        C        1.0        0.12963        0.115917        0        
C2        C        1.038462        0.185185        0.115917        0        
C3        C        1.0        0.203703        0.115917        0        
C4        C        1.038462        0.148148        0.115917        0        
C1        C        1.0        0.24074099999999998        0.115917        0        
C2        C        1.038462        0.296297        0.115917        0        
C3        C        1.0        0.314815        0.115917        0        
C4        C        1.038462        0.259259        0.115917        0        
C1        C        1.0        0.351852        0.115917        0        
C2        C        1.038462        0.407408        0.115917        0        
C3        C        1.0        0.42592500000000005        0.115917        0        
C4        C        1.038462        0.37037        0.115917        0        
C1        C        1.0        0.46296300000000007        0.115917        0        
C2        C        1.038462        0.518519        0.115917        0        
C3        C        1.0        0.537037        0.115917        0        
C4        C        1.038462        0.481481        0.115917        0        
C1        C        1.0        0.574075        0.115917        0        
C2        C        1.038462        0.62963        0.115917        0        
C3        C        1.0        0.648148        0.115917        0        
C4        C        1.038462        0.592592        0.115917        0        
C1        C        0.0        0.685186        0.115917        0        
C1        C        0.076923        0.685186        0.115917        0        
C1        C        0.153846        0.685186        0.115917        0        
C1        C        0.230769        0.685186        0.115917        0        
C1        C        0.307692        0.685186        0.115917        0        
C1        C        0.384615        0.685186        0.115917        0        
C1        C        0.461538        0.685186        0.115917        0        
C1        C        0.538462        0.685186        0.115917        0        
C1        C        0.615385        0.685186        0.115917        0        
C1        C        0.692308        0.685186        0.115917        0        
C1        C        0.769231        0.685186        0.115917        0        
C1        C        0.846154        0.685186        0.115917        0        
C1        C        0.923077        0.685186        0.115917        0        
C1        C        1.0        0.685186        0.115917        0        
C2        C        0.038462        0.740741        0.115917        0        
C2        C        0.115385        0.740741        0.115917        0        
C2        C        0.192308        0.740741        0.115917        0        
C2        C        0.269231        0.740741        0.115917        0        
C2        C        0.346154        0.740741        0.115917        0        
C2        C        0.423077        0.740741        0.115917        0        
C2        C        0.5        0.740741        0.115917        0        
C2        C        0.576923        0.740741        0.115917        0        
C2        C        0.653846        0.740741        0.115917        0        
C2        C        0.730769        0.740741        0.115917        0        
C2        C        0.807692        0.740741        0.115917        0        
C2        C        0.884615        0.740741        0.115917        0        
C2        C        0.961538        0.740741        0.115917        0        
C2        C        1.038462        0.740741        0.115917        0        
C3        C        0.0        0.759259        0.115917        0        
C3        C        0.076923        0.759259        0.115917        0        
C3        C        0.153846        0.759259        0.115917        0        
C3        C        0.230769        0.759259        0.115917        0        
C3        C        0.307692        0.759259        0.115917        0        
C3        C        0.384615        0.759259        0.115917        0        
C3        C        0.461538        0.759259        0.115917        0        
C3        C        0.538462        0.759259        0.115917        0        
C3        C        0.615385        0.759259        0.115917        0        
C3        C        0.692308        0.759259        0.115917        0        
C3        C        0.769231        0.759259        0.115917        0        
C3        C        0.846154        0.759259        0.115917        0        
C3        C        0.923077        0.759259        0.115917        0        
C3        C        1.0        0.759259        0.115917        0        
C4        C        0.038462        0.703703        0.115917        0        
C4        C        0.115385        0.703703        0.115917        0        
C4        C        0.192308        0.703703        0.115917        0        
C4        C        0.269231        0.703703        0.115917        0        
C4        C        0.346154        0.703703        0.115917        0        
C4        C        0.423077        0.703703        0.115917        0        
C4        C        0.5        0.703703        0.115917        0        
C4        C        0.576923        0.703703        0.115917        0        
C4        C        0.653846        0.703703        0.115917        0        
C4        C        0.730769        0.703703        0.115917        0        
C4        C        0.807692        0.703703        0.115917        0        
C4        C        0.884615        0.703703        0.115917        0        
C4        C        0.961538        0.703703        0.115917        0        
C4        C        1.038462        0.703703        0.115917        0        
C1        C        0.0        0.796297        0.115917        0        
C1        C        0.076923        0.796297        0.115917        0        
C1        C        0.153846        0.796297        0.115917        0        
C1        C        0.230769        0.796297        0.115917        0        
C1        C        0.307692        0.796297        0.115917        0        
C1        C        0.384615        0.796297        0.115917        0        
C1        C        0.461538        0.796297        0.115917        0        
C1        C        0.538462        0.796297        0.115917        0        
C1        C        0.615385        0.796297        0.115917        0        
C1        C        0.692308        0.796297        0.115917        0        
C1        C        0.769231        0.796297        0.115917        0        
C1        C        0.846154        0.796297        0.115917        0        
C1        C        0.923077        0.796297        0.115917        0        
C1        C        1.0        0.796297        0.115917        0        
C2        C        0.038462        0.851852        0.115917        0        
C2        C        0.115385        0.851852        0.115917        0        
C2        C        0.192308        0.851852        0.115917        0        
C2        C        0.269231        0.851852        0.115917        0        
C2        C        0.346154        0.851852        0.115917        0        
C2        C        0.423077        0.851852        0.115917        0        
C2        C        0.5        0.851852        0.115917        0        
C2        C        0.576923        0.851852        0.115917        0        
C2        C        0.653846        0.851852        0.115917        0        
C2        C        0.730769        0.851852        0.115917        0        
C2        C        0.807692        0.851852        0.115917        0        
C2        C        0.884615        0.851852        0.115917        0        
C2        C        0.961538        0.851852        0.115917        0        
C2        C        1.038462        0.851852        0.115917        0        
C3        C        0.0        0.87037        0.115917        0        
C3        C        0.076923        0.87037        0.115917        0        
C3        C        0.153846        0.87037        0.115917        0        
C3        C        0.230769        0.87037        0.115917        0        
C3        C        0.307692        0.87037        0.115917        0        
C3        C        0.384615        0.87037        0.115917        0        
C3        C        0.461538        0.87037        0.115917        0        
C3        C        0.538462        0.87037        0.115917        0        
C3        C        0.615385        0.87037        0.115917        0        
C3        C        0.692308        0.87037        0.115917        0        
C3        C        0.769231        0.87037        0.115917        0        
C3        C        0.846154        0.87037        0.115917        0        
C3        C        0.923077        0.87037        0.115917        0        
C3        C        1.0        0.87037        0.115917        0        
C4        C        0.038462        0.814814        0.115917        0        
C4        C        0.115385        0.814814        0.115917        0        
C4        C        0.192308        0.814814        0.115917        0        
C4        C        0.269231        0.814814        0.115917        0        
C4        C        0.346154        0.814814        0.115917        0        
C4        C        0.423077        0.814814        0.115917        0        
C4        C        0.5        0.814814        0.115917        0        
C4        C        0.576923        0.814814        0.115917        0        
C4        C        0.653846        0.814814        0.115917        0        
C4        C        0.730769        0.814814        0.115917        0        
C4        C        0.807692        0.814814        0.115917        0        
C4        C        0.884615        0.814814        0.115917        0        
C4        C        0.961538        0.814814        0.115917        0        
C4        C        1.038462        0.814814        0.115917        0        
C1        C        0.0        0.907408        0.115917        0        
C1        C        0.076923        0.907408        0.115917        0        
C1        C        0.153846        0.907408        0.115917        0        
C1        C        0.230769        0.907408        0.115917        0        
C1        C        0.307692        0.907408        0.115917        0        
C1        C        0.384615        0.907408        0.115917        0        
C1        C        0.461538        0.907408        0.115917        0        
C1        C        0.538462        0.907408        0.115917        0        
C1        C        0.615385        0.907408        0.115917        0        
C1        C        0.692308        0.907408        0.115917        0        
C1        C        0.769231        0.907408        0.115917        0        
C1        C        0.846154        0.907408        0.115917        0        
C1        C        0.923077        0.907408        0.115917        0        
C1        C        1.0        0.907408        0.115917        0        
C2        C        0.038462        0.962963        0.115917        0        
C2        C        0.115385        0.962963        0.115917        0        
C2        C        0.192308        0.962963        0.115917        0        
C2        C        0.269231        0.962963        0.115917        0        
C2        C        0.346154        0.962963        0.115917        0        
C2        C        0.423077        0.962963        0.115917        0        
C2        C        0.5        0.962963        0.115917        0        
C2        C        0.576923        0.962963        0.115917        0        
C2        C        0.653846        0.962963        0.115917        0        
C2        C        0.730769        0.962963        0.115917        0        
C2        C        0.807692        0.962963        0.115917        0        
C2        C        0.884615        0.962963        0.115917        0        
C2        C        0.961538        0.962963        0.115917        0        
C2        C        1.038462        0.962963        0.115917        0        
C3        C        0.0        0.9814809999999999        0.115917        0        
C3        C        0.076923        0.9814809999999999        0.115917        0        
C3        C        0.153846        0.9814809999999999        0.115917        0        
C3        C        0.230769        0.9814809999999999        0.115917        0        
C3        C        0.307692        0.9814809999999999        0.115917        0        
C3        C        0.384615        0.9814809999999999        0.115917        0        
C3        C        0.461538        0.9814809999999999        0.115917        0        
C3        C        0.538462        0.9814809999999999        0.115917        0        
C3        C        0.615385        0.9814809999999999        0.115917        0        
C3        C        0.692308        0.9814809999999999        0.115917        0        
C3        C        0.769231        0.9814809999999999        0.115917        0        
C3        C        0.846154        0.9814809999999999        0.115917        0        
C3        C        0.923077        0.9814809999999999        0.115917        0        
C3        C        1.0        0.9814809999999999        0.115917        0        
C4        C        0.038462        0.925925        0.115917        0        
C4        C        0.115385        0.925925        0.115917        0        
C4        C        0.192308        0.925925        0.115917        0        
C4        C        0.269231        0.925925        0.115917        0        
C4        C        0.346154        0.925925        0.115917        0        
C4        C        0.423077        0.925925        0.115917        0        
C4        C        0.5        0.925925        0.115917        0        
C4        C        0.576923        0.925925        0.115917        0        
C4        C        0.653846        0.925925        0.115917        0        
C4        C        0.730769        0.925925        0.115917        0        
C4        C        0.807692        0.925925        0.115917        0        
C4        C        0.884615        0.925925        0.115917        0        
C4        C        0.961538        0.925925        0.115917        0        
C4        C        1.038462        0.925925        0.115917        0        
C1        C        0.0        0.018519        0.231834        0        
C2        C        0.038462        0.074075        0.231834        0        
C3        C        0.0        0.092592        0.231834        0        
C4        C        0.038462        0.037037        0.231834        0        
C1        C        0.0        0.12963        0.231834        0        
C2        C        0.038462        0.185185        0.231834        0        
C3        C        0.0        0.203703        0.231834        0        
C4        C        0.038462        0.148148        0.231834        0        
C1        C        0.0        0.24074099999999998        0.231834        0        
C2        C        0.038462        0.296297        0.231834        0        
C3        C        0.0        0.314815        0.231834        0        
C4        C        0.038462        0.259259        0.231834        0        
C1        C        0.0        0.351852        0.231834        0        
C2        C        0.038462        0.407408        0.231834        0        
C3        C        0.0        0.42592500000000005        0.231834        0        
C4        C        0.038462        0.37037        0.231834        0        
C1        C        0.0        0.46296300000000007        0.231834        0        
C2        C        0.038462        0.518519        0.231834        0        
C3        C        0.0        0.537037        0.231834        0        
C4        C        0.038462        0.481481        0.231834        0        
C1        C        0.0        0.574075        0.231834        0        
C2        C        0.038462        0.62963        0.231834        0        
C3        C        0.0        0.648148        0.231834        0        
C4        C        0.038462        0.592592        0.231834        0        
C_FG        C        0.076923        0.018519        0.231834        0.2        
C2        C        0.115385        0.074075        0.231834        0        
C3        C        0.076923        0.092592        0.231834        0        
C4        C        0.115385        0.037037        0.231834        0        
C1        C        0.076923        0.12963        0.231834        0        
C2        C        0.115385        0.185185        0.231834        0        
C3        C        0.076923        0.203703        0.231834        0        
C4        C        0.115385        0.148148        0.231834        0        
C1        C        0.076923        0.24074099999999998        0.231834        0        
C2        C        0.115385        0.296297        0.231834        0        
C_FG        C        0.076923        0.314815        0.231834        0.2        
C4        C        0.115385        0.259259        0.231834        0        
C1        C        0.076923        0.351852        0.231834        0        
C2        C        0.115385        0.407408        0.231834        0        
C3        C        0.076923        0.42592500000000005        0.231834        0        
C4        C        0.115385        0.37037        0.231834        0        
C1        C        0.076923        0.46296300000000007        0.231834        0        
C2        C        0.115385        0.518519        0.231834        0        
C3        C        0.076923        0.537037        0.231834        0        
C4        C        0.115385        0.481481        0.231834        0        
C_FG        C        0.076923        0.574075        0.231834        0.2        
C2        C        0.115385        0.62963        0.231834        0        
C3        C        0.076923        0.648148        0.231834        0        
C4        C        0.115385        0.592592        0.231834        0        
C1        C        0.153846        0.018519        0.231834        0        
C2        C        0.192308        0.074075        0.231834        0        
C3        C        0.153846        0.092592        0.231834        0        
C4        C        0.192308        0.037037        0.231834        0        
C1        C        0.153846        0.12963        0.231834        0        
C2        C        0.192308        0.185185        0.231834        0        
C3        C        0.153846        0.203703        0.231834        0        
C4        C        0.192308        0.148148        0.231834        0        
C1        C        0.153846        0.24074099999999998        0.231834        0        
C2        C        0.192308        0.296297        0.231834        0        
C3        C        0.153846        0.314815        0.231834        0        
C4        C        0.192308        0.259259        0.231834        0        
C1        C        0.153846        0.351852        0.231834        0        
C2        C        0.192308        0.407408        0.231834        0        
C3        C        0.153846        0.42592500000000005        0.231834        0        
C4        C        0.192308        0.37037        0.231834        0        
C1        C        0.153846        0.46296300000000007        0.231834        0        
C2        C        0.192308        0.518519        0.231834        0        
C3        C        0.153846        0.537037        0.231834        0        
C4        C        0.192308        0.481481        0.231834        0        
C1        C        0.153846        0.574075        0.231834        0        
C2        C        0.192308        0.62963        0.231834        0        
C3        C        0.153846        0.648148        0.231834        0        
C4        C        0.192308        0.592592        0.231834        0        
C_FG        C        0.230769        0.018519        0.231834        0.2        
C2        C        0.269231        0.074075        0.231834        0        
C3        C        0.230769        0.092592        0.231834        0        
C4        C        0.269231        0.037037        0.231834        0        
C1        C        0.230769        0.12963        0.231834        0        
C2        C        0.269231        0.185185        0.231834        0        
C3        C        0.230769        0.203703        0.231834        0        
C4        C        0.269231        0.148148        0.231834        0        
C1        C        0.230769        0.24074099999999998        0.231834        0        
C2        C        0.269231        0.296297        0.231834        0        
C_FG        C        0.230769        0.314815        0.231834        0.2        
C4        C        0.269231        0.259259        0.231834        0        
C1        C        0.230769        0.351852        0.231834        0        
C2        C        0.269231        0.407408        0.231834        0        
C3        C        0.230769        0.42592500000000005        0.231834        0        
C4        C        0.269231        0.37037        0.231834        0        
C1        C        0.230769        0.46296300000000007        0.231834        0        
C2        C        0.269231        0.518519        0.231834        0        
C3        C        0.230769        0.537037        0.231834        0        
C4        C        0.269231        0.481481        0.231834        0        
C_FG        C        0.230769        0.574075        0.231834        0.2        
C2        C        0.269231        0.62963        0.231834        0        
C3        C        0.230769        0.648148        0.231834        0        
C4        C        0.269231        0.592592        0.231834        0        
C1        C        0.307692        0.018519        0.231834        0        
C2        C        0.346154        0.074075        0.231834        0        
C3        C        0.307692        0.092592        0.231834        0        
C4        C        0.346154        0.037037        0.231834        0        
C1        C        0.307692        0.12963        0.231834        0        
C2        C        0.346154        0.185185        0.231834        0        
C3        C        0.307692        0.203703        0.231834        0        
C4        C        0.346154        0.148148        0.231834        0        
C1        C        0.307692        0.24074099999999998        0.231834        0        
C2        C        0.346154        0.296297        0.231834        0        
C3        C        0.307692        0.314815        0.231834        0        
C4        C        0.346154        0.259259        0.231834        0        
C1        C        0.307692        0.351852        0.231834        0        
C2        C        0.346154        0.407408        0.231834        0        
C3        C        0.307692        0.42592500000000005        0.231834        0        
C4        C        0.346154        0.37037        0.231834        0        
C1        C        0.307692        0.46296300000000007        0.231834        0        
C2        C        0.346154        0.518519        0.231834        0        
C3        C        0.307692        0.537037        0.231834        0        
C4        C        0.346154        0.481481        0.231834        0        
C1        C        0.307692        0.574075        0.231834        0        
C2        C        0.346154        0.62963        0.231834        0        
C3        C        0.307692        0.648148        0.231834        0        
C4        C        0.346154        0.592592        0.231834        0        
C1        C        0.384615        0.018519        0.231834        0        
C2        C        0.423077        0.074075        0.231834        0        
C3        C        0.384615        0.092592        0.231834        0        
C4        C        0.423077        0.037037        0.231834        0        
C1        C        0.384615        0.12963        0.231834        0        
C2        C        0.423077        0.185185        0.231834        0        
C3        C        0.384615        0.203703        0.231834        0        
C4        C        0.423077        0.148148        0.231834        0        
C1        C        0.384615        0.24074099999999998        0.231834        0        
C2        C        0.423077        0.296297        0.231834        0        
C3        C        0.384615        0.314815        0.231834        0        
C4        C        0.423077        0.259259        0.231834        0        
C1        C        0.384615        0.351852        0.231834        0        
C2        C        0.423077        0.407408        0.231834        0        
C3        C        0.384615        0.42592500000000005        0.231834        0        
C4        C        0.423077        0.37037        0.231834        0        
C1        C        0.384615        0.46296300000000007        0.231834        0        
C2        C        0.423077        0.518519        0.231834        0        
C3        C        0.384615        0.537037        0.231834        0        
C4        C        0.423077        0.481481        0.231834        0        
C1        C        0.384615        0.574075        0.231834        0        
C2        C        0.423077        0.62963        0.231834        0        
C3        C        0.384615        0.648148        0.231834        0        
C4        C        0.423077        0.592592        0.231834        0        
C1        C        0.461538        0.018519        0.231834        0        
C2        C        0.5        0.074075        0.231834        0        
C3        C        0.461538        0.092592        0.231834        0        
C4        C        0.5        0.037037        0.231834        0        
C1        C        0.461538        0.12963        0.231834        0        
C2        C        0.5        0.185185        0.231834        0        
C3        C        0.461538        0.203703        0.231834        0        
C4        C        0.5        0.148148        0.231834        0        
C1        C        0.461538        0.24074099999999998        0.231834        0        
C2        C        0.5        0.296297        0.231834        0        
C3        C        0.461538        0.314815        0.231834        0        
C4        C        0.5        0.259259        0.231834        0        
C1        C        0.461538        0.351852        0.231834        0        
C2        C        0.5        0.407408        0.231834        0        
C3        C        0.461538        0.42592500000000005        0.231834        0        
C4        C        0.5        0.37037        0.231834        0        
C1        C        0.461538        0.46296300000000007        0.231834        0        
C2        C        0.5        0.518519        0.231834        0        
C3        C        0.461538        0.537037        0.231834        0        
C4        C        0.5        0.481481        0.231834        0        
C1        C        0.461538        0.574075        0.231834        0        
C2        C        0.5        0.62963        0.231834        0        
C3        C        0.461538        0.648148        0.231834        0        
C4        C        0.5        0.592592        0.231834        0        
C1        C        0.538462        0.018519        0.231834        0        
C2        C        0.576923        0.074075        0.231834        0        
C3        C        0.538462        0.092592        0.231834        0        
C4        C        0.576923        0.037037        0.231834        0        
C1        C        0.538462        0.12963        0.231834        0        
C2        C        0.576923        0.185185        0.231834        0        
C3        C        0.538462        0.203703        0.231834        0        
C4        C        0.576923        0.148148        0.231834        0        
C1        C        0.538462        0.24074099999999998        0.231834        0        
C2        C        0.576923        0.296297        0.231834        0        
C3        C        0.538462        0.314815        0.231834        0        
C4        C        0.576923        0.259259        0.231834        0        
C1        C        0.538462        0.351852        0.231834        0        
C2        C        0.576923        0.407408        0.231834        0        
C3        C        0.538462        0.42592500000000005        0.231834        0        
C4        C        0.576923        0.37037        0.231834        0        
C1        C        0.538462        0.46296300000000007        0.231834        0        
C2        C        0.576923        0.518519        0.231834        0        
C3        C        0.538462        0.537037        0.231834        0        
C4        C        0.576923        0.481481        0.231834        0        
C1        C        0.538462        0.574075        0.231834        0        
C2        C        0.576923        0.62963        0.231834        0        
C3        C        0.538462        0.648148        0.231834        0        
C4        C        0.576923        0.592592        0.231834        0        
C1        C        0.615385        0.018519        0.231834        0        
C2        C        0.653846        0.074075        0.231834        0        
C3        C        0.615385        0.092592        0.231834        0        
C4        C        0.653846        0.037037        0.231834        0        
C1        C        0.615385        0.12963        0.231834        0        
C2        C        0.653846        0.185185        0.231834        0        
C3        C        0.615385        0.203703        0.231834        0        
C4        C        0.653846        0.148148        0.231834        0        
C1        C        0.615385        0.24074099999999998        0.231834        0        
C2        C        0.653846        0.296297        0.231834        0        
C3        C        0.615385        0.314815        0.231834        0        
C4        C        0.653846        0.259259        0.231834        0        
C1        C        0.615385        0.351852        0.231834        0        
C2        C        0.653846        0.407408        0.231834        0        
C3        C        0.615385        0.42592500000000005        0.231834        0        
C4        C        0.653846        0.37037        0.231834        0        
C1        C        0.615385        0.46296300000000007        0.231834        0        
C2        C        0.653846        0.518519        0.231834        0        
C3        C        0.615385        0.537037        0.231834        0        
C4        C        0.653846        0.481481        0.231834        0        
C1        C        0.615385        0.574075        0.231834        0        
C2        C        0.653846        0.62963        0.231834        0        
C3        C        0.615385        0.648148        0.231834        0        
C4        C        0.653846        0.592592        0.231834        0        
C1        C        0.692308        0.018519        0.231834        0        
C2        C        0.730769        0.074075        0.231834        0        
C3        C        0.692308        0.092592        0.231834        0        
C4        C        0.730769        0.037037        0.231834        0        
C1        C        0.692308        0.12963        0.231834        0        
C2        C        0.730769        0.185185        0.231834        0        
C3        C        0.692308        0.203703        0.231834        0        
C4        C        0.730769        0.148148        0.231834        0        
C1        C        0.692308        0.24074099999999998        0.231834        0        
C2        C        0.730769        0.296297        0.231834        0        
C3        C        0.692308        0.314815        0.231834        0        
C4        C        0.730769        0.259259        0.231834        0        
C1        C        0.692308        0.351852        0.231834        0        
C2        C        0.730769        0.407408        0.231834        0        
C3        C        0.692308        0.42592500000000005        0.231834        0        
C4        C        0.730769        0.37037        0.231834        0        
C1        C        0.692308        0.46296300000000007        0.231834        0        
C2        C        0.730769        0.518519        0.231834        0        
C3        C        0.692308        0.537037        0.231834        0        
C4        C        0.730769        0.481481        0.231834        0        
C1        C        0.692308        0.574075        0.231834        0        
C2        C        0.730769        0.62963        0.231834        0        
C3        C        0.692308        0.648148        0.231834        0        
C4        C        0.730769        0.592592        0.231834        0        
C1        C        0.769231        0.018519        0.231834        0        
C2        C        0.807692        0.074075        0.231834        0        
C3        C        0.769231        0.092592        0.231834        0        
C4        C        0.807692        0.037037        0.231834        0        
C1        C        0.769231        0.12963        0.231834        0        
C2        C        0.807692        0.185185        0.231834        0        
C3        C        0.769231        0.203703        0.231834        0        
C4        C        0.807692        0.148148        0.231834        0        
C1        C        0.769231        0.24074099999999998        0.231834        0        
C2        C        0.807692        0.296297        0.231834        0        
C3        C        0.769231        0.314815        0.231834        0        
C4        C        0.807692        0.259259        0.231834        0        
C1        C        0.769231        0.351852        0.231834        0        
C2        C        0.807692        0.407408        0.231834        0        
C3        C        0.769231        0.42592500000000005        0.231834        0        
C4        C        0.807692        0.37037        0.231834        0        
C1        C        0.769231        0.46296300000000007        0.231834        0        
C2        C        0.807692        0.518519        0.231834        0        
C3        C        0.769231        0.537037        0.231834        0        
C4        C        0.807692        0.481481        0.231834        0        
C1        C        0.769231        0.574075        0.231834        0        
C2        C        0.807692        0.62963        0.231834        0        
C3        C        0.769231        0.648148        0.231834        0        
C4        C        0.807692        0.592592        0.231834        0        
C_FG        C        0.846154        0.018519        0.231834        0.2        
C2        C        0.884615        0.074075        0.231834        0        
C3        C        0.846154        0.092592        0.231834        0        
C4        C        0.884615        0.037037        0.231834        0        
C1        C        0.846154        0.12963        0.231834        0        
C2        C        0.884615        0.185185        0.231834        0        
C3        C        0.846154        0.203703        0.231834        0        
C4        C        0.884615        0.148148        0.231834        0        
C1        C        0.846154        0.24074099999999998        0.231834        0        
C2        C        0.884615        0.296297        0.231834        0        
C_FG        C        0.846154        0.314815        0.231834        0.2        
C4        C        0.884615        0.259259        0.231834        0        
C1        C        0.846154        0.351852        0.231834        0        
C2        C        0.884615        0.407408        0.231834        0        
C3        C        0.846154        0.42592500000000005        0.231834        0        
C4        C        0.884615        0.37037        0.231834        0        
C1        C        0.846154        0.46296300000000007        0.231834        0        
C2        C        0.884615        0.518519        0.231834        0        
C3        C        0.846154        0.537037        0.231834        0        
C4        C        0.884615        0.481481        0.231834        0        
C_FG        C        0.846154        0.574075        0.231834        0.2        
C2        C        0.884615        0.62963        0.231834        0        
C3        C        0.846154        0.648148        0.231834        0        
C4        C        0.884615        0.592592        0.231834        0        
C1        C        0.923077        0.018519        0.231834        0        
C2        C        0.961538        0.074075        0.231834        0        
C3        C        0.923077        0.092592        0.231834        0        
C4        C        0.961538        0.037037        0.231834        0        
C1        C        0.923077        0.12963        0.231834        0        
C2        C        0.961538        0.185185        0.231834        0        
C3        C        0.923077        0.203703        0.231834        0        
C4        C        0.961538        0.148148        0.231834        0        
C1        C        0.923077        0.24074099999999998        0.231834        0        
C2        C        0.961538        0.296297        0.231834        0        
C3        C        0.923077        0.314815        0.231834        0        
C4        C        0.961538        0.259259        0.231834        0        
C1        C        0.923077        0.351852        0.231834        0        
C2        C        0.961538        0.407408        0.231834        0        
C3        C        0.923077        0.42592500000000005        0.231834        0        
C4        C        0.961538        0.37037        0.231834        0        
C1        C        0.923077        0.46296300000000007        0.231834        0        
C2        C        0.961538        0.518519        0.231834        0        
C3        C        0.923077        0.537037        0.231834        0        
C4        C        0.961538        0.481481        0.231834        0        
C1        C        0.923077        0.574075        0.231834        0        
C2        C        0.961538        0.62963        0.231834        0        
C3        C        0.923077        0.648148        0.231834        0        
C4        C        0.961538        0.592592        0.231834        0        
C_FG        C        1.0        0.018519        0.231834        0.2        
C2        C        1.038462        0.074075        0.231834        0        
C3        C        1.0        0.092592        0.231834        0        
C4        C        1.038462        0.037037        0.231834        0        
C1        C        1.0        0.12963        0.231834        0        
C2        C        1.038462        0.185185        0.231834        0        
C3        C        1.0        0.203703        0.231834        0        
C4        C        1.038462        0.148148        0.231834        0        
C1        C        1.0        0.24074099999999998        0.231834        0        
C2        C        1.038462        0.296297        0.231834        0        
C_FG        C        1.0        0.314815        0.231834        0.2        
C4        C        1.038462        0.259259        0.231834        0        
C1        C        1.0        0.351852        0.231834        0        
C2        C        1.038462        0.407408        0.231834        0        
C3        C        1.0        0.42592500000000005        0.231834        0        
C4        C        1.038462        0.37037        0.231834        0        
C1        C        1.0        0.46296300000000007        0.231834        0        
C2        C        1.038462        0.518519        0.231834        0        
C3        C        1.0        0.537037        0.231834        0        
C4        C        1.038462        0.481481        0.231834        0        
C_FG        C        1.0        0.574075        0.231834        0.2        
C2        C        1.038462        0.62963        0.231834        0        
C3        C        1.0        0.648148        0.231834        0        
C4        C        1.038462        0.592592        0.231834        0        
C1        C        0.0        0.685186        0.231834        0        
C1        C        0.076923        0.685186        0.231834        0        
C1        C        0.153846        0.685186        0.231834        0        
C1        C        0.230769        0.685186        0.231834        0        
C1        C        0.307692        0.685186        0.231834        0        
C1        C        0.384615        0.685186        0.231834        0        
C1        C        0.461538        0.685186        0.231834        0        
C1        C        0.538462        0.685186        0.231834        0        
C1        C        0.615385        0.685186        0.231834        0        
C1        C        0.692308        0.685186        0.231834        0        
C1        C        0.769231        0.685186        0.231834        0        
C1        C        0.846154        0.685186        0.231834        0        
C1        C        0.923077        0.685186        0.231834        0        
C1        C        1.0        0.685186        0.231834        0        
C2        C        0.038462        0.740741        0.231834        0        
C2        C        0.115385        0.740741        0.231834        0        
C2        C        0.192308        0.740741        0.231834        0        
C2        C        0.269231        0.740741        0.231834        0        
C2        C        0.346154        0.740741        0.231834        0        
C2        C        0.423077        0.740741        0.231834        0        
C2        C        0.5        0.740741        0.231834        0        
C2        C        0.576923        0.740741        0.231834        0        
C2        C        0.653846        0.740741        0.231834        0        
C2        C        0.730769        0.740741        0.231834        0        
C2        C        0.807692        0.740741        0.231834        0        
C2        C        0.884615        0.740741        0.231834        0        
C2        C        0.961538        0.740741        0.231834        0        
C2        C        1.038462        0.740741        0.231834        0        
C3        C        0.0        0.759259        0.231834        0        
C3        C        0.076923        0.759259        0.231834        0        
C3        C        0.153846        0.759259        0.231834        0        
C3        C        0.230769        0.759259        0.231834        0        
C3        C        0.307692        0.759259        0.231834        0        
C3        C        0.384615        0.759259        0.231834        0        
C3        C        0.461538        0.759259        0.231834        0        
C3        C        0.538462        0.759259        0.231834        0        
C3        C        0.615385        0.759259        0.231834        0        
C3        C        0.692308        0.759259        0.231834        0        
C3        C        0.769231        0.759259        0.231834        0        
C3        C        0.846154        0.759259        0.231834        0        
C3        C        0.923077        0.759259        0.231834        0        
C3        C        1.0        0.759259        0.231834        0        
C4        C        0.038462        0.703703        0.231834        0        
C4        C        0.115385        0.703703        0.231834        0        
C4        C        0.192308        0.703703        0.231834        0        
C4        C        0.269231        0.703703        0.231834        0        
C4        C        0.346154        0.703703        0.231834        0        
C4        C        0.423077        0.703703        0.231834        0        
C4        C        0.5        0.703703        0.231834        0        
C4        C        0.576923        0.703703        0.231834        0        
C4        C        0.653846        0.703703        0.231834        0        
C4        C        0.730769        0.703703        0.231834        0        
C4        C        0.807692        0.703703        0.231834        0        
C4        C        0.884615        0.703703        0.231834        0        
C4        C        0.961538        0.703703        0.231834        0        
C4        C        1.038462        0.703703        0.231834        0        
C1        C        0.0        0.796297        0.231834        0        
C1        C        0.076923        0.796297        0.231834        0        
C1        C        0.153846        0.796297        0.231834        0        
C1        C        0.230769        0.796297        0.231834        0        
C1        C        0.307692        0.796297        0.231834        0        
C1        C        0.384615        0.796297        0.231834        0        
C1        C        0.461538        0.796297        0.231834        0        
C1        C        0.538462        0.796297        0.231834        0        
C1        C        0.615385        0.796297        0.231834        0        
C1        C        0.692308        0.796297        0.231834        0        
C1        C        0.769231        0.796297        0.231834        0        
C1        C        0.846154        0.796297        0.231834        0        
C1        C        0.923077        0.796297        0.231834        0        
C1        C        1.0        0.796297        0.231834        0        
C2        C        0.038462        0.851852        0.231834        0        
C2        C        0.115385        0.851852        0.231834        0        
C2        C        0.192308        0.851852        0.231834        0        
C2        C        0.269231        0.851852        0.231834        0        
C2        C        0.346154        0.851852        0.231834        0        
C2        C        0.423077        0.851852        0.231834        0        
C2        C        0.5        0.851852        0.231834        0        
C2        C        0.576923        0.851852        0.231834        0        
C2        C        0.653846        0.851852        0.231834        0        
C2        C        0.730769        0.851852        0.231834        0        
C2        C        0.807692        0.851852        0.231834        0        
C2        C        0.884615        0.851852        0.231834        0        
C2        C        0.961538        0.851852        0.231834        0        
C2        C        1.038462        0.851852        0.231834        0        
C3        C        0.0        0.87037        0.231834        0        
C_FG        C        0.076923        0.87037        0.231834        0.2        
C3        C        0.153846        0.87037        0.231834        0        
C_FG        C        0.230769        0.87037        0.231834        0.2        
C3        C        0.307692        0.87037        0.231834        0        
C3        C        0.384615        0.87037        0.231834        0        
C3        C        0.461538        0.87037        0.231834        0        
C3        C        0.538462        0.87037        0.231834        0        
C3        C        0.615385        0.87037        0.231834        0        
C3        C        0.692308        0.87037        0.231834        0        
C3        C        0.769231        0.87037        0.231834        0        
C_FG        C        0.846154        0.87037        0.231834        0.2        
C3        C        0.923077        0.87037        0.231834        0        
C_FG        C        1.0        0.87037        0.231834        0.2        
C4        C        0.038462        0.814814        0.231834        0        
C4        C        0.115385        0.814814        0.231834        0        
C4        C        0.192308        0.814814        0.231834        0        
C4        C        0.269231        0.814814        0.231834        0        
C4        C        0.346154        0.814814        0.231834        0        
C4        C        0.423077        0.814814        0.231834        0        
C4        C        0.5        0.814814        0.231834        0        
C4        C        0.576923        0.814814        0.231834        0        
C4        C        0.653846        0.814814        0.231834        0        
C4        C        0.730769        0.814814        0.231834        0        
C4        C        0.807692        0.814814        0.231834        0        
C4        C        0.884615        0.814814        0.231834        0        
C4        C        0.961538        0.814814        0.231834        0        
C4        C        1.038462        0.814814        0.231834        0        
C1        C        0.0        0.907408        0.231834        0        
C1        C        0.076923        0.907408        0.231834        0        
C1        C        0.153846        0.907408        0.231834        0        
C1        C        0.230769        0.907408        0.231834        0        
C1        C        0.307692        0.907408        0.231834        0        
C1        C        0.384615        0.907408        0.231834        0        
C1        C        0.461538        0.907408        0.231834        0        
C1        C        0.538462        0.907408        0.231834        0        
C1        C        0.615385        0.907408        0.231834        0        
C1        C        0.692308        0.907408        0.231834        0        
C1        C        0.769231        0.907408        0.231834        0        
C1        C        0.846154        0.907408        0.231834        0        
C1        C        0.923077        0.907408        0.231834        0        
C1        C        1.0        0.907408        0.231834        0        
C2        C        0.038462        0.962963        0.231834        0        
C2        C        0.115385        0.962963        0.231834        0        
C2        C        0.192308        0.962963        0.231834        0        
C2        C        0.269231        0.962963        0.231834        0        
C2        C        0.346154        0.962963        0.231834        0        
C2        C        0.423077        0.962963        0.231834        0        
C2        C        0.5        0.962963        0.231834        0        
C2        C        0.576923        0.962963        0.231834        0        
C2        C        0.653846        0.962963        0.231834        0        
C2        C        0.730769        0.962963        0.231834        0        
C2        C        0.807692        0.962963        0.231834        0        
C2        C        0.884615        0.962963        0.231834        0        
C2        C        0.961538        0.962963        0.231834        0        
C2        C        1.038462        0.962963        0.231834        0        
C3        C        0.0        0.9814809999999999        0.231834        0        
C3        C        0.076923        0.9814809999999999        0.231834        0        
C3        C        0.153846        0.9814809999999999        0.231834        0        
C3        C        0.230769        0.9814809999999999        0.231834        0        
C3        C        0.307692        0.9814809999999999        0.231834        0        
C3        C        0.384615        0.9814809999999999        0.231834        0        
C3        C        0.461538        0.9814809999999999        0.231834        0        
C3        C        0.538462        0.9814809999999999        0.231834        0        
C3        C        0.615385        0.9814809999999999        0.231834        0        
C3        C        0.692308        0.9814809999999999        0.231834        0        
C3        C        0.769231        0.9814809999999999        0.231834        0        
C3        C        0.846154        0.9814809999999999        0.231834        0        
C3        C        0.923077        0.9814809999999999        0.231834        0        
C3        C        1.0        0.9814809999999999        0.231834        0        
C4        C        0.038462        0.925925        0.231834        0        
C4        C        0.115385        0.925925        0.231834        0        
C4        C        0.192308        0.925925        0.231834        0        
C4        C        0.269231        0.925925        0.231834        0        
C4        C        0.346154        0.925925        0.231834        0        
C4        C        0.423077        0.925925        0.231834        0        
C4        C        0.5        0.925925        0.231834        0        
C4        C        0.576923        0.925925        0.231834        0        
C4        C        0.653846        0.925925        0.231834        0        
C4        C        0.730769        0.925925        0.231834        0        
C4        C        0.807692        0.925925        0.231834        0        
C4        C        0.884615        0.925925        0.231834        0        
C4        C        0.961538        0.925925        0.231834        0        
C4        C        1.038462        0.925925        0.231834        0        
C1        C        0.0        0.018519        0.768166        0        
C2        C        0.038462        0.074075        0.768166        0        
C3        C        0.0        0.092592        0.768166        0        
C4        C        0.038462        0.037037        0.768166        0        
C1        C        0.0        0.12963        0.768166        0        
C2        C        0.038462        0.185185        0.768166        0        
C3        C        0.0        0.203703        0.768166        0        
C4        C        0.038462        0.148148        0.768166        0        
C1        C        0.0        0.24074099999999998        0.768166        0        
C2        C        0.038462        0.296297        0.768166        0        
C3        C        0.0        0.314815        0.768166        0        
C4        C        0.038462        0.259259        0.768166        0        
C1        C        0.0        0.351852        0.768166        0        
C2        C        0.038462        0.407408        0.768166        0        
C3        C        0.0        0.42592500000000005        0.768166        0        
C4        C        0.038462        0.37037        0.768166        0        
C1        C        0.0        0.46296300000000007        0.768166        0        
C2        C        0.038462        0.518519        0.768166        0        
C3        C        0.0        0.537037        0.768166        0        
C4        C        0.038462        0.481481        0.768166        0        
C1        C        0.0        0.574075        0.768166        0        
C2        C        0.038462        0.62963        0.768166        0        
C3        C        0.0        0.648148        0.768166        0        
C4        C        0.038462        0.592592        0.768166        0        
C_FG        C        0.076923        0.018519        0.768166        0.2        
C2        C        0.115385        0.074075        0.768166        0        
C3        C        0.076923        0.092592        0.768166        0        
C4        C        0.115385        0.037037        0.768166        0        
C1        C        0.076923        0.12963        0.768166        0        
C2        C        0.115385        0.185185        0.768166        0        
C3        C        0.076923        0.203703        0.768166        0        
C4        C        0.115385        0.148148        0.768166        0        
C1        C        0.076923        0.24074099999999998        0.768166        0        
C2        C        0.115385        0.296297        0.768166        0        
C_FG        C        0.076923        0.314815        0.768166        0.2        
C4        C        0.115385        0.259259        0.768166        0        
C1        C        0.076923        0.351852        0.768166        0        
C2        C        0.115385        0.407408        0.768166        0        
C3        C        0.076923        0.42592500000000005        0.768166        0        
C4        C        0.115385        0.37037        0.768166        0        
C1        C        0.076923        0.46296300000000007        0.768166        0        
C2        C        0.115385        0.518519        0.768166        0        
C3        C        0.076923        0.537037        0.768166        0        
C4        C        0.115385        0.481481        0.768166        0        
C_FG        C        0.076923        0.574075        0.768166        0.2        
C2        C        0.115385        0.62963        0.768166        0        
C3        C        0.076923        0.648148        0.768166        0        
C4        C        0.115385        0.592592        0.768166        0        
C1        C        0.153846        0.018519        0.768166        0        
C2        C        0.192308        0.074075        0.768166        0        
C3        C        0.153846        0.092592        0.768166        0        
C4        C        0.192308        0.037037        0.768166        0        
C1        C        0.153846        0.12963        0.768166        0        
C2        C        0.192308        0.185185        0.768166        0        
C3        C        0.153846        0.203703        0.768166        0        
C4        C        0.192308        0.148148        0.768166        0        
C1        C        0.153846        0.24074099999999998        0.768166        0        
C2        C        0.192308        0.296297        0.768166        0        
C3        C        0.153846        0.314815        0.768166        0        
C4        C        0.192308        0.259259        0.768166        0        
C1        C        0.153846        0.351852        0.768166        0        
C2        C        0.192308        0.407408        0.768166        0        
C3        C        0.153846        0.42592500000000005        0.768166        0        
C4        C        0.192308        0.37037        0.768166        0        
C1        C        0.153846        0.46296300000000007        0.768166        0        
C2        C        0.192308        0.518519        0.768166        0        
C3        C        0.153846        0.537037        0.768166        0        
C4        C        0.192308        0.481481        0.768166        0        
C1        C        0.153846        0.574075        0.768166        0        
C2        C        0.192308        0.62963        0.768166        0        
C3        C        0.153846        0.648148        0.768166        0        
C4        C        0.192308        0.592592        0.768166        0        
C_FG        C        0.230769        0.018519        0.768166        0.2        
C2        C        0.269231        0.074075        0.768166        0        
C3        C        0.230769        0.092592        0.768166        0        
C4        C        0.269231        0.037037        0.768166        0        
C1        C        0.230769        0.12963        0.768166        0        
C2        C        0.269231        0.185185        0.768166        0        
C3        C        0.230769        0.203703        0.768166        0        
C4        C        0.269231        0.148148        0.768166        0        
C1        C        0.230769        0.24074099999999998        0.768166        0        
C2        C        0.269231        0.296297        0.768166        0        
C_FG        C        0.230769        0.314815        0.768166        0.2        
C4        C        0.269231        0.259259        0.768166        0        
C1        C        0.230769        0.351852        0.768166        0        
C2        C        0.269231        0.407408        0.768166        0        
C3        C        0.230769        0.42592500000000005        0.768166        0        
C4        C        0.269231        0.37037        0.768166        0        
C1        C        0.230769        0.46296300000000007        0.768166        0        
C2        C        0.269231        0.518519        0.768166        0        
C3        C        0.230769        0.537037        0.768166        0        
C4        C        0.269231        0.481481        0.768166        0        
C_FG        C        0.230769        0.574075        0.768166        0.2        
C2        C        0.269231        0.62963        0.768166        0        
C3        C        0.230769        0.648148        0.768166        0        
C4        C        0.269231        0.592592        0.768166        0        
C1        C        0.307692        0.018519        0.768166        0        
C2        C        0.346154        0.074075        0.768166        0        
C3        C        0.307692        0.092592        0.768166        0        
C4        C        0.346154        0.037037        0.768166        0        
C1        C        0.307692        0.12963        0.768166        0        
C2        C        0.346154        0.185185        0.768166        0        
C3        C        0.307692        0.203703        0.768166        0        
C4        C        0.346154        0.148148        0.768166        0        
C1        C        0.307692        0.24074099999999998        0.768166        0        
C2        C        0.346154        0.296297        0.768166        0        
C3        C        0.307692        0.314815        0.768166        0        
C4        C        0.346154        0.259259        0.768166        0        
C1        C        0.307692        0.351852        0.768166        0        
C2        C        0.346154        0.407408        0.768166        0        
C3        C        0.307692        0.42592500000000005        0.768166        0        
C4        C        0.346154        0.37037        0.768166        0        
C1        C        0.307692        0.46296300000000007        0.768166        0        
C2        C        0.346154        0.518519        0.768166        0        
C3        C        0.307692        0.537037        0.768166        0        
C4        C        0.346154        0.481481        0.768166        0        
C1        C        0.307692        0.574075        0.768166        0        
C2        C        0.346154        0.62963        0.768166        0        
C3        C        0.307692        0.648148        0.768166        0        
C4        C        0.346154        0.592592        0.768166        0        
C1        C        0.384615        0.018519        0.768166        0        
C2        C        0.423077        0.074075        0.768166        0        
C3        C        0.384615        0.092592        0.768166        0        
C4        C        0.423077        0.037037        0.768166        0        
C1        C        0.384615        0.12963        0.768166        0        
C2        C        0.423077        0.185185        0.768166        0        
C3        C        0.384615        0.203703        0.768166        0        
C4        C        0.423077        0.148148        0.768166        0        
C1        C        0.384615        0.24074099999999998        0.768166        0        
C2        C        0.423077        0.296297        0.768166        0        
C3        C        0.384615        0.314815        0.768166        0        
C4        C        0.423077        0.259259        0.768166        0        
C1        C        0.384615        0.351852        0.768166        0        
C2        C        0.423077        0.407408        0.768166        0        
C3        C        0.384615        0.42592500000000005        0.768166        0        
C4        C        0.423077        0.37037        0.768166        0        
C1        C        0.384615        0.46296300000000007        0.768166        0        
C2        C        0.423077        0.518519        0.768166        0        
C3        C        0.384615        0.537037        0.768166        0        
C4        C        0.423077        0.481481        0.768166        0        
C1        C        0.384615        0.574075        0.768166        0        
C2        C        0.423077        0.62963        0.768166        0        
C3        C        0.384615        0.648148        0.768166        0        
C4        C        0.423077        0.592592        0.768166        0        
C1        C        0.461538        0.018519        0.768166        0        
C2        C        0.5        0.074075        0.768166        0        
C3        C        0.461538        0.092592        0.768166        0        
C4        C        0.5        0.037037        0.768166        0        
C1        C        0.461538        0.12963        0.768166        0        
C2        C        0.5        0.185185        0.768166        0        
C3        C        0.461538        0.203703        0.768166        0        
C4        C        0.5        0.148148        0.768166        0        
C1        C        0.461538        0.24074099999999998        0.768166        0        
C2        C        0.5        0.296297        0.768166        0        
C3        C        0.461538        0.314815        0.768166        0        
C4        C        0.5        0.259259        0.768166        0        
C1        C        0.461538        0.351852        0.768166        0        
C2        C        0.5        0.407408        0.768166        0        
C3        C        0.461538        0.42592500000000005        0.768166        0        
C4        C        0.5        0.37037        0.768166        0        
C1        C        0.461538        0.46296300000000007        0.768166        0        
C2        C        0.5        0.518519        0.768166        0        
C3        C        0.461538        0.537037        0.768166        0        
C4        C        0.5        0.481481        0.768166        0        
C1        C        0.461538        0.574075        0.768166        0        
C2        C        0.5        0.62963        0.768166        0        
C3        C        0.461538        0.648148        0.768166        0        
C4        C        0.5        0.592592        0.768166        0        
C1        C        0.538462        0.018519        0.768166        0        
C2        C        0.576923        0.074075        0.768166        0        
C3        C        0.538462        0.092592        0.768166        0        
C4        C        0.576923        0.037037        0.768166        0        
C1        C        0.538462        0.12963        0.768166        0        
C2        C        0.576923        0.185185        0.768166        0        
C3        C        0.538462        0.203703        0.768166        0        
C4        C        0.576923        0.148148        0.768166        0        
C1        C        0.538462        0.24074099999999998        0.768166        0        
C2        C        0.576923        0.296297        0.768166        0        
C3        C        0.538462        0.314815        0.768166        0        
C4        C        0.576923        0.259259        0.768166        0        
C1        C        0.538462        0.351852        0.768166        0        
C2        C        0.576923        0.407408        0.768166        0        
C3        C        0.538462        0.42592500000000005        0.768166        0        
C4        C        0.576923        0.37037        0.768166        0        
C1        C        0.538462        0.46296300000000007        0.768166        0        
C2        C        0.576923        0.518519        0.768166        0        
C3        C        0.538462        0.537037        0.768166        0        
C4        C        0.576923        0.481481        0.768166        0        
C1        C        0.538462        0.574075        0.768166        0        
C2        C        0.576923        0.62963        0.768166        0        
C3        C        0.538462        0.648148        0.768166        0        
C4        C        0.576923        0.592592        0.768166        0        
C1        C        0.615385        0.018519        0.768166        0        
C2        C        0.653846        0.074075        0.768166        0        
C3        C        0.615385        0.092592        0.768166        0        
C4        C        0.653846        0.037037        0.768166        0        
C1        C        0.615385        0.12963        0.768166        0        
C2        C        0.653846        0.185185        0.768166        0        
C3        C        0.615385        0.203703        0.768166        0        
C4        C        0.653846        0.148148        0.768166        0        
C1        C        0.615385        0.24074099999999998        0.768166        0        
C2        C        0.653846        0.296297        0.768166        0        
C3        C        0.615385        0.314815        0.768166        0        
C4        C        0.653846        0.259259        0.768166        0        
C1        C        0.615385        0.351852        0.768166        0        
C2        C        0.653846        0.407408        0.768166        0        
C3        C        0.615385        0.42592500000000005        0.768166        0        
C4        C        0.653846        0.37037        0.768166        0        
C1        C        0.615385        0.46296300000000007        0.768166        0        
C2        C        0.653846        0.518519        0.768166        0        
C3        C        0.615385        0.537037        0.768166        0        
C4        C        0.653846        0.481481        0.768166        0        
C1        C        0.615385        0.574075        0.768166        0        
C2        C        0.653846        0.62963        0.768166        0        
C3        C        0.615385        0.648148        0.768166        0        
C4        C        0.653846        0.592592        0.768166        0        
C1        C        0.692308        0.018519        0.768166        0        
C2        C        0.730769        0.074075        0.768166        0        
C3        C        0.692308        0.092592        0.768166        0        
C4        C        0.730769        0.037037        0.768166        0        
C1        C        0.692308        0.12963        0.768166        0        
C2        C        0.730769        0.185185        0.768166        0        
C3        C        0.692308        0.203703        0.768166        0        
C4        C        0.730769        0.148148        0.768166        0        
C1        C        0.692308        0.24074099999999998        0.768166        0        
C2        C        0.730769        0.296297        0.768166        0        
C3        C        0.692308        0.314815        0.768166        0        
C4        C        0.730769        0.259259        0.768166        0        
C1        C        0.692308        0.351852        0.768166        0        
C2        C        0.730769        0.407408        0.768166        0        
C3        C        0.692308        0.42592500000000005        0.768166        0        
C4        C        0.730769        0.37037        0.768166        0        
C1        C        0.692308        0.46296300000000007        0.768166        0        
C2        C        0.730769        0.518519        0.768166        0        
C3        C        0.692308        0.537037        0.768166        0        
C4        C        0.730769        0.481481        0.768166        0        
C1        C        0.692308        0.574075        0.768166        0        
C2        C        0.730769        0.62963        0.768166        0        
C3        C        0.692308        0.648148        0.768166        0        
C4        C        0.730769        0.592592        0.768166        0        
C1        C        0.769231        0.018519        0.768166        0        
C2        C        0.807692        0.074075        0.768166        0        
C3        C        0.769231        0.092592        0.768166        0        
C4        C        0.807692        0.037037        0.768166        0        
C1        C        0.769231        0.12963        0.768166        0        
C2        C        0.807692        0.185185        0.768166        0        
C3        C        0.769231        0.203703        0.768166        0        
C4        C        0.807692        0.148148        0.768166        0        
C1        C        0.769231        0.24074099999999998        0.768166        0        
C2        C        0.807692        0.296297        0.768166        0        
C3        C        0.769231        0.314815        0.768166        0        
C4        C        0.807692        0.259259        0.768166        0        
C1        C        0.769231        0.351852        0.768166        0        
C2        C        0.807692        0.407408        0.768166        0        
C3        C        0.769231        0.42592500000000005        0.768166        0        
C4        C        0.807692        0.37037        0.768166        0        
C1        C        0.769231        0.46296300000000007        0.768166        0        
C2        C        0.807692        0.518519        0.768166        0        
C3        C        0.769231        0.537037        0.768166        0        
C4        C        0.807692        0.481481        0.768166        0        
C1        C        0.769231        0.574075        0.768166        0        
C2        C        0.807692        0.62963        0.768166        0        
C3        C        0.769231        0.648148        0.768166        0        
C4        C        0.807692        0.592592        0.768166        0        
C_FG        C        0.846154        0.018519        0.768166        0.2        
C2        C        0.884615        0.074075        0.768166        0        
C3        C        0.846154        0.092592        0.768166        0        
C4        C        0.884615        0.037037        0.768166        0        
C1        C        0.846154        0.12963        0.768166        0        
C2        C        0.884615        0.185185        0.768166        0        
C3        C        0.846154        0.203703        0.768166        0        
C4        C        0.884615        0.148148        0.768166        0        
C1        C        0.846154        0.24074099999999998        0.768166        0        
C2        C        0.884615        0.296297        0.768166        0        
C_FG        C        0.846154        0.314815        0.768166        0.2        
C4        C        0.884615        0.259259        0.768166        0        
C1        C        0.846154        0.351852        0.768166        0        
C2        C        0.884615        0.407408        0.768166        0        
C3        C        0.846154        0.42592500000000005        0.768166        0        
C4        C        0.884615        0.37037        0.768166        0        
C1        C        0.846154        0.46296300000000007        0.768166        0        
C2        C        0.884615        0.518519        0.768166        0        
C3        C        0.846154        0.537037        0.768166        0        
C4        C        0.884615        0.481481        0.768166        0        
C_FG        C        0.846154        0.574075        0.768166        0.2        
C2        C        0.884615        0.62963        0.768166        0        
C3        C        0.846154        0.648148        0.768166        0        
C4        C        0.884615        0.592592        0.768166        0        
C1        C        0.923077        0.018519        0.768166        0        
C2        C        0.961538        0.074075        0.768166        0        
C3        C        0.923077        0.092592        0.768166        0        
C4        C        0.961538        0.037037        0.768166        0        
C1        C        0.923077        0.12963        0.768166        0        
C2        C        0.961538        0.185185        0.768166        0        
C3        C        0.923077        0.203703        0.768166        0        
C4        C        0.961538        0.148148        0.768166        0        
C1        C        0.923077        0.24074099999999998        0.768166        0        
C2        C        0.961538        0.296297        0.768166        0        
C3        C        0.923077        0.314815        0.768166        0        
C4        C        0.961538        0.259259        0.768166        0        
C1        C        0.923077        0.351852        0.768166        0        
C2        C        0.961538        0.407408        0.768166        0        
C3        C        0.923077        0.42592500000000005        0.768166        0        
C4        C        0.961538        0.37037        0.768166        0        
C1        C        0.923077        0.46296300000000007        0.768166        0        
C2        C        0.961538        0.518519        0.768166        0        
C3        C        0.923077        0.537037        0.768166        0        
C4        C        0.961538        0.481481        0.768166        0        
C1        C        0.923077        0.574075        0.768166        0        
C2        C        0.961538        0.62963        0.768166        0        
C3        C        0.923077        0.648148        0.768166        0        
C4        C        0.961538        0.592592        0.768166        0        
C_FG        C        1.0        0.018519        0.768166        0.2        
C2        C        1.038462        0.074075        0.768166        0        
C3        C        1.0        0.092592        0.768166        0        
C4        C        1.038462        0.037037        0.768166        0        
C1        C        1.0        0.12963        0.768166        0        
C2        C        1.038462        0.185185        0.768166        0        
C3        C        1.0        0.203703        0.768166        0        
C4        C        1.038462        0.148148        0.768166        0        
C1        C        1.0        0.24074099999999998        0.768166        0        
C2        C        1.038462        0.296297        0.768166        0        
C_FG        C        1.0        0.314815        0.768166        0.2        
C4        C        1.038462        0.259259        0.768166        0        
C1        C        1.0        0.351852        0.768166        0        
C2        C        1.038462        0.407408        0.768166        0        
C3        C        1.0        0.42592500000000005        0.768166        0        
C4        C        1.038462        0.37037        0.768166        0        
C1        C        1.0        0.46296300000000007        0.768166        0        
C2        C        1.038462        0.518519        0.768166        0        
C3        C        1.0        0.537037        0.768166        0        
C4        C        1.038462        0.481481        0.768166        0        
C_FG        C        1.0        0.574075        0.768166        0.2        
C2        C        1.038462        0.62963        0.768166        0        
C3        C        1.0        0.648148        0.768166        0        
C4        C        1.038462        0.592592        0.768166        0        
C1        C        0.0        0.685186        0.768166        0        
C1        C        0.076923        0.685186        0.768166        0        
C1        C        0.153846        0.685186        0.768166        0        
C1        C        0.230769        0.685186        0.768166        0        
C1        C        0.307692        0.685186        0.768166        0        
C1        C        0.384615        0.685186        0.768166        0        
C1        C        0.461538        0.685186        0.768166        0        
C1        C        0.538462        0.685186        0.768166        0        
C1        C        0.615385        0.685186        0.768166        0        
C1        C        0.692308        0.685186        0.768166        0        
C1        C        0.769231        0.685186        0.768166        0        
C1        C        0.846154        0.685186        0.768166        0        
C1        C        0.923077        0.685186        0.768166        0        
C1        C        1.0        0.685186        0.768166        0        
C2        C        0.038462        0.740741        0.768166        0        
C2        C        0.115385        0.740741        0.768166        0        
C2        C        0.192308        0.740741        0.768166        0        
C2        C        0.269231        0.740741        0.768166        0        
C2        C        0.346154        0.740741        0.768166        0        
C2        C        0.423077        0.740741        0.768166        0        
C2        C        0.5        0.740741        0.768166        0        
C2        C        0.576923        0.740741        0.768166        0        
C2        C        0.653846        0.740741        0.768166        0        
C2        C        0.730769        0.740741        0.768166        0        
C2        C        0.807692        0.740741        0.768166        0        
C2        C        0.884615        0.740741        0.768166        0        
C2        C        0.961538        0.740741        0.768166        0        
C2        C        1.038462        0.740741        0.768166        0        
C3        C        0.0        0.759259        0.768166        0        
C3        C        0.076923        0.759259        0.768166        0        
C3        C        0.153846        0.759259        0.768166        0        
C3        C        0.230769        0.759259        0.768166        0        
C3        C        0.307692        0.759259        0.768166        0        
C3        C        0.384615        0.759259        0.768166        0        
C3        C        0.461538        0.759259        0.768166        0        
C3        C        0.538462        0.759259        0.768166        0        
C3        C        0.615385        0.759259        0.768166        0        
C3        C        0.692308        0.759259        0.768166        0        
C3        C        0.769231        0.759259        0.768166        0        
C3        C        0.846154        0.759259        0.768166        0        
C3        C        0.923077        0.759259        0.768166        0        
C3        C        1.0        0.759259        0.768166        0        
C4        C        0.038462        0.703703        0.768166        0        
C4        C        0.115385        0.703703        0.768166        0        
C4        C        0.192308        0.703703        0.768166        0        
C4        C        0.269231        0.703703        0.768166        0        
C4        C        0.346154        0.703703        0.768166        0        
C4        C        0.423077        0.703703        0.768166        0        
C4        C        0.5        0.703703        0.768166        0        
C4        C        0.576923        0.703703        0.768166        0        
C4        C        0.653846        0.703703        0.768166        0        
C4        C        0.730769        0.703703        0.768166        0        
C4        C        0.807692        0.703703        0.768166        0        
C4        C        0.884615        0.703703        0.768166        0        
C4        C        0.961538        0.703703        0.768166        0        
C4        C        1.038462        0.703703        0.768166        0        
C1        C        0.0        0.796297        0.768166        0        
C1        C        0.076923        0.796297        0.768166        0        
C1        C        0.153846        0.796297        0.768166        0        
C1        C        0.230769        0.796297        0.768166        0        
C1        C        0.307692        0.796297        0.768166        0        
C1        C        0.384615        0.796297        0.768166        0        
C1        C        0.461538        0.796297        0.768166        0        
C1        C        0.538462        0.796297        0.768166        0        
C1        C        0.615385        0.796297        0.768166        0        
C1        C        0.692308        0.796297        0.768166        0        
C1        C        0.769231        0.796297        0.768166        0        
C1        C        0.846154        0.796297        0.768166        0        
C1        C        0.923077        0.796297        0.768166        0        
C1        C        1.0        0.796297        0.768166        0        
C2        C        0.038462        0.851852        0.768166        0        
C2        C        0.115385        0.851852        0.768166        0        
C2        C        0.192308        0.851852        0.768166        0        
C2        C        0.269231        0.851852        0.768166        0        
C2        C        0.346154        0.851852        0.768166        0        
C2        C        0.423077        0.851852        0.768166        0        
C2        C        0.5        0.851852        0.768166        0        
C2        C        0.576923        0.851852        0.768166        0        
C2        C        0.653846        0.851852        0.768166        0        
C2        C        0.730769        0.851852        0.768166        0        
C2        C        0.807692        0.851852        0.768166        0        
C2        C        0.884615        0.851852        0.768166        0        
C2        C        0.961538        0.851852        0.768166        0        
C2        C        1.038462        0.851852        0.768166        0        
C3        C        0.0        0.87037        0.768166        0        
C_FG        C        0.076923        0.87037        0.768166        0.2        
C3        C        0.153846        0.87037        0.768166        0        
C_FG        C        0.230769        0.87037        0.768166        0.2        
C3        C        0.307692        0.87037        0.768166        0        
C3        C        0.384615        0.87037        0.768166        0        
C3        C        0.461538        0.87037        0.768166        0        
C3        C        0.538462        0.87037        0.768166        0        
C3        C        0.615385        0.87037        0.768166        0        
C3        C        0.692308        0.87037        0.768166        0        
C3        C        0.769231        0.87037        0.768166        0        
C_FG        C        0.846154        0.87037        0.768166        0.2        
C3        C        0.923077        0.87037        0.768166        0        
C_FG        C        1.0        0.87037        0.768166        0.2        
C4        C        0.038462        0.814814        0.768166        0        
C4        C        0.115385        0.814814        0.768166        0        
C4        C        0.192308        0.814814        0.768166        0        
C4        C        0.269231        0.814814        0.768166        0        
C4        C        0.346154        0.814814        0.768166        0        
C4        C        0.423077        0.814814        0.768166        0        
C4        C        0.5        0.814814        0.768166        0        
C4        C        0.576923        0.814814        0.768166        0        
C4        C        0.653846        0.814814        0.768166        0        
C4        C        0.730769        0.814814        0.768166        0        
C4        C        0.807692        0.814814        0.768166        0        
C4        C        0.884615        0.814814        0.768166        0        
C4        C        0.961538        0.814814        0.768166        0        
C4        C        1.038462        0.814814        0.768166        0        
C1        C        0.0        0.907408        0.768166        0        
C1        C        0.076923        0.907408        0.768166        0        
C1        C        0.153846        0.907408        0.768166        0        
C1        C        0.230769        0.907408        0.768166        0        
C1        C        0.307692        0.907408        0.768166        0        
C1        C        0.384615        0.907408        0.768166        0        
C1        C        0.461538        0.907408        0.768166        0        
C1        C        0.538462        0.907408        0.768166        0        
C1        C        0.615385        0.907408        0.768166        0        
C1        C        0.692308        0.907408        0.768166        0        
C1        C        0.769231        0.907408        0.768166        0        
C1        C        0.846154        0.907408        0.768166        0        
C1        C        0.923077        0.907408        0.768166        0        
C1        C        1.0        0.907408        0.768166        0        
C2        C        0.038462        0.962963        0.768166        0        
C2        C        0.115385        0.962963        0.768166        0        
C2        C        0.192308        0.962963        0.768166        0        
C2        C        0.269231        0.962963        0.768166        0        
C2        C        0.346154        0.962963        0.768166        0        
C2        C        0.423077        0.962963        0.768166        0        
C2        C        0.5        0.962963        0.768166        0        
C2        C        0.576923        0.962963        0.768166        0        
C2        C        0.653846        0.962963        0.768166        0        
C2        C        0.730769        0.962963        0.768166        0        
C2        C        0.807692        0.962963        0.768166        0        
C2        C        0.884615        0.962963        0.768166        0        
C2        C        0.961538        0.962963        0.768166        0        
C2        C        1.038462        0.962963        0.768166        0        
C3        C        0.0        0.9814809999999999        0.768166        0        
C3        C        0.076923        0.9814809999999999        0.768166        0        
C3        C        0.153846        0.9814809999999999        0.768166        0        
C3        C        0.230769        0.9814809999999999        0.768166        0        
C3        C        0.307692        0.9814809999999999        0.768166        0        
C3        C        0.384615        0.9814809999999999        0.768166        0        
C3        C        0.461538        0.9814809999999999        0.768166        0        
C3        C        0.538462        0.9814809999999999        0.768166        0        
C3        C        0.615385        0.9814809999999999        0.768166        0        
C3        C        0.692308        0.9814809999999999        0.768166        0        
C3        C        0.769231        0.9814809999999999        0.768166        0        
C3        C        0.846154        0.9814809999999999        0.768166        0        
C3        C        0.923077        0.9814809999999999        0.768166        0        
C3        C        1.0        0.9814809999999999        0.768166        0        
C4        C        0.038462        0.925925        0.768166        0        
C4        C        0.115385        0.925925        0.768166        0        
C4        C        0.192308        0.925925        0.768166        0        
C4        C        0.269231        0.925925        0.768166        0        
C4        C        0.346154        0.925925        0.768166        0        
C4        C        0.423077        0.925925        0.768166        0        
C4        C        0.5        0.925925        0.768166        0        
C4        C        0.576923        0.925925        0.768166        0        
C4        C        0.653846        0.925925        0.768166        0        
C4        C        0.730769        0.925925        0.768166        0        
C4        C        0.807692        0.925925        0.768166        0        
C4        C        0.884615        0.925925        0.768166        0        
C4        C        0.961538        0.925925        0.768166        0        
C4        C        1.038462        0.925925        0.768166        0        
C1        C        0.0        0.018519        0.884083        0        
C2        C        0.038462        0.074075        0.884083        0        
C3        C        0.0        0.092592        0.884083        0        
C4        C        0.038462        0.037037        0.884083        0        
C1        C        0.0        0.12963        0.884083        0        
C2        C        0.038462        0.185185        0.884083        0        
C3        C        0.0        0.203703        0.884083        0        
C4        C        0.038462        0.148148        0.884083        0        
C1        C        0.0        0.24074099999999998        0.884083        0        
C2        C        0.038462        0.296297        0.884083        0        
C3        C        0.0        0.314815        0.884083        0        
C4        C        0.038462        0.259259        0.884083        0        
C1        C        0.0        0.351852        0.884083        0        
C2        C        0.038462        0.407408        0.884083        0        
C3        C        0.0        0.42592500000000005        0.884083        0        
C4        C        0.038462        0.37037        0.884083        0        
C1        C        0.0        0.46296300000000007        0.884083        0        
C2        C        0.038462        0.518519        0.884083        0        
C3        C        0.0        0.537037        0.884083        0        
C4        C        0.038462        0.481481        0.884083        0        
C1        C        0.0        0.574075        0.884083        0        
C2        C        0.038462        0.62963        0.884083        0        
C3        C        0.0        0.648148        0.884083        0        
C4        C        0.038462        0.592592        0.884083        0        
C1        C        0.076923        0.018519        0.884083        0        
C2        C        0.115385        0.074075        0.884083        0        
C3        C        0.076923        0.092592        0.884083        0        
C4        C        0.115385        0.037037        0.884083        0        
C1        C        0.076923        0.12963        0.884083        0        
C2        C        0.115385        0.185185        0.884083        0        
C3        C        0.076923        0.203703        0.884083        0        
C4        C        0.115385        0.148148        0.884083        0        
C1        C        0.076923        0.24074099999999998        0.884083        0        
C2        C        0.115385        0.296297        0.884083        0        
C3        C        0.076923        0.314815        0.884083        0        
C4        C        0.115385        0.259259        0.884083        0        
C1        C        0.076923        0.351852        0.884083        0        
C2        C        0.115385        0.407408        0.884083        0        
C3        C        0.076923        0.42592500000000005        0.884083        0        
C4        C        0.115385        0.37037        0.884083        0        
C1        C        0.076923        0.46296300000000007        0.884083        0        
C2        C        0.115385        0.518519        0.884083        0        
C3        C        0.076923        0.537037        0.884083        0        
C4        C        0.115385        0.481481        0.884083        0        
C1        C        0.076923        0.574075        0.884083        0        
C2        C        0.115385        0.62963        0.884083        0        
C3        C        0.076923        0.648148        0.884083        0        
C4        C        0.115385        0.592592        0.884083        0        
C1        C        0.153846        0.018519        0.884083        0        
C2        C        0.192308        0.074075        0.884083        0        
C3        C        0.153846        0.092592        0.884083        0        
C4        C        0.192308        0.037037        0.884083        0        
C1        C        0.153846        0.12963        0.884083        0        
C2        C        0.192308        0.185185        0.884083        0        
C3        C        0.153846        0.203703        0.884083        0        
C4        C        0.192308        0.148148        0.884083        0        
C1        C        0.153846        0.24074099999999998        0.884083        0        
C2        C        0.192308        0.296297        0.884083        0        
C3        C        0.153846        0.314815        0.884083        0        
C4        C        0.192308        0.259259        0.884083        0        
C1        C        0.153846        0.351852        0.884083        0        
C2        C        0.192308        0.407408        0.884083        0        
C3        C        0.153846        0.42592500000000005        0.884083        0        
C4        C        0.192308        0.37037        0.884083        0        
C1        C        0.153846        0.46296300000000007        0.884083        0        
C2        C        0.192308        0.518519        0.884083        0        
C3        C        0.153846        0.537037        0.884083        0        
C4        C        0.192308        0.481481        0.884083        0        
C1        C        0.153846        0.574075        0.884083        0        
C2        C        0.192308        0.62963        0.884083        0        
C3        C        0.153846        0.648148        0.884083        0        
C4        C        0.192308        0.592592        0.884083        0        
C1        C        0.230769        0.018519        0.884083        0        
C2        C        0.269231        0.074075        0.884083        0        
C3        C        0.230769        0.092592        0.884083        0        
C4        C        0.269231        0.037037        0.884083        0        
C1        C        0.230769        0.12963        0.884083        0        
C2        C        0.269231        0.185185        0.884083        0        
C3        C        0.230769        0.203703        0.884083        0        
C4        C        0.269231        0.148148        0.884083        0        
C1        C        0.230769        0.24074099999999998        0.884083        0        
C2        C        0.269231        0.296297        0.884083        0        
C3        C        0.230769        0.314815        0.884083        0        
C4        C        0.269231        0.259259        0.884083        0        
C1        C        0.230769        0.351852        0.884083        0        
C2        C        0.269231        0.407408        0.884083        0        
C3        C        0.230769        0.42592500000000005        0.884083        0        
C4        C        0.269231        0.37037        0.884083        0        
C1        C        0.230769        0.46296300000000007        0.884083        0        
C2        C        0.269231        0.518519        0.884083        0        
C3        C        0.230769        0.537037        0.884083        0        
C4        C        0.269231        0.481481        0.884083        0        
C1        C        0.230769        0.574075        0.884083        0        
C2        C        0.269231        0.62963        0.884083        0        
C3        C        0.230769        0.648148        0.884083        0        
C4        C        0.269231        0.592592        0.884083        0        
C1        C        0.307692        0.018519        0.884083        0        
C2        C        0.346154        0.074075        0.884083        0        
C3        C        0.307692        0.092592        0.884083        0        
C4        C        0.346154        0.037037        0.884083        0        
C1        C        0.307692        0.12963        0.884083        0        
C2        C        0.346154        0.185185        0.884083        0        
C3        C        0.307692        0.203703        0.884083        0        
C4        C        0.346154        0.148148        0.884083        0        
C1        C        0.307692        0.24074099999999998        0.884083        0        
C2        C        0.346154        0.296297        0.884083        0        
C3        C        0.307692        0.314815        0.884083        0        
C4        C        0.346154        0.259259        0.884083        0        
C1        C        0.307692        0.351852        0.884083        0        
C2        C        0.346154        0.407408        0.884083        0        
C3        C        0.307692        0.42592500000000005        0.884083        0        
C4        C        0.346154        0.37037        0.884083        0        
C1        C        0.307692        0.46296300000000007        0.884083        0        
C2        C        0.346154        0.518519        0.884083        0        
C3        C        0.307692        0.537037        0.884083        0        
C4        C        0.346154        0.481481        0.884083        0        
C1        C        0.307692        0.574075        0.884083        0        
C2        C        0.346154        0.62963        0.884083        0        
C3        C        0.307692        0.648148        0.884083        0        
C4        C        0.346154        0.592592        0.884083        0        
C1        C        0.384615        0.018519        0.884083        0        
C2        C        0.423077        0.074075        0.884083        0        
C3        C        0.384615        0.092592        0.884083        0        
C4        C        0.423077        0.037037        0.884083        0        
C1        C        0.384615        0.12963        0.884083        0        
C2        C        0.423077        0.185185        0.884083        0        
C3        C        0.384615        0.203703        0.884083        0        
C4        C        0.423077        0.148148        0.884083        0        
C1        C        0.384615        0.24074099999999998        0.884083        0        
C2        C        0.423077        0.296297        0.884083        0        
C3        C        0.384615        0.314815        0.884083        0        
C4        C        0.423077        0.259259        0.884083        0        
C1        C        0.384615        0.351852        0.884083        0        
C2        C        0.423077        0.407408        0.884083        0        
C3        C        0.384615        0.42592500000000005        0.884083        0        
C4        C        0.423077        0.37037        0.884083        0        
C1        C        0.384615        0.46296300000000007        0.884083        0        
C2        C        0.423077        0.518519        0.884083        0        
C3        C        0.384615        0.537037        0.884083        0        
C4        C        0.423077        0.481481        0.884083        0        
C1        C        0.384615        0.574075        0.884083        0        
C2        C        0.423077        0.62963        0.884083        0        
C3        C        0.384615        0.648148        0.884083        0        
C4        C        0.423077        0.592592        0.884083        0        
C1        C        0.461538        0.018519        0.884083        0        
C2        C        0.5        0.074075        0.884083        0        
C3        C        0.461538        0.092592        0.884083        0        
C4        C        0.5        0.037037        0.884083        0        
C1        C        0.461538        0.12963        0.884083        0        
C2        C        0.5        0.185185        0.884083        0        
C3        C        0.461538        0.203703        0.884083        0        
C4        C        0.5        0.148148        0.884083        0        
C1        C        0.461538        0.24074099999999998        0.884083        0        
C2        C        0.5        0.296297        0.884083        0        
C3        C        0.461538        0.314815        0.884083        0        
C4        C        0.5        0.259259        0.884083        0        
C1        C        0.461538        0.351852        0.884083        0        
C2        C        0.5        0.407408        0.884083        0        
C3        C        0.461538        0.42592500000000005        0.884083        0        
C4        C        0.5        0.37037        0.884083        0        
C1        C        0.461538        0.46296300000000007        0.884083        0        
C2        C        0.5        0.518519        0.884083        0        
C3        C        0.461538        0.537037        0.884083        0        
C4        C        0.5        0.481481        0.884083        0        
C1        C        0.461538        0.574075        0.884083        0        
C2        C        0.5        0.62963        0.884083        0        
C3        C        0.461538        0.648148        0.884083        0        
C4        C        0.5        0.592592        0.884083        0        
C1        C        0.538462        0.018519        0.884083        0        
C2        C        0.576923        0.074075        0.884083        0        
C3        C        0.538462        0.092592        0.884083        0        
C4        C        0.576923        0.037037        0.884083        0        
C1        C        0.538462        0.12963        0.884083        0        
C2        C        0.576923        0.185185        0.884083        0        
C3        C        0.538462        0.203703        0.884083        0        
C4        C        0.576923        0.148148        0.884083        0        
C1        C        0.538462        0.24074099999999998        0.884083        0        
C2        C        0.576923        0.296297        0.884083        0        
C3        C        0.538462        0.314815        0.884083        0        
C4        C        0.576923        0.259259        0.884083        0        
C1        C        0.538462        0.351852        0.884083        0        
C2        C        0.576923        0.407408        0.884083        0        
C3        C        0.538462        0.42592500000000005        0.884083        0        
C4        C        0.576923        0.37037        0.884083        0        
C1        C        0.538462        0.46296300000000007        0.884083        0        
C2        C        0.576923        0.518519        0.884083        0        
C3        C        0.538462        0.537037        0.884083        0        
C4        C        0.576923        0.481481        0.884083        0        
C1        C        0.538462        0.574075        0.884083        0        
C2        C        0.576923        0.62963        0.884083        0        
C3        C        0.538462        0.648148        0.884083        0        
C4        C        0.576923        0.592592        0.884083        0        
C1        C        0.615385        0.018519        0.884083        0        
C2        C        0.653846        0.074075        0.884083        0        
C3        C        0.615385        0.092592        0.884083        0        
C4        C        0.653846        0.037037        0.884083        0        
C1        C        0.615385        0.12963        0.884083        0        
C2        C        0.653846        0.185185        0.884083        0        
C3        C        0.615385        0.203703        0.884083        0        
C4        C        0.653846        0.148148        0.884083        0        
C1        C        0.615385        0.24074099999999998        0.884083        0        
C2        C        0.653846        0.296297        0.884083        0        
C3        C        0.615385        0.314815        0.884083        0        
C4        C        0.653846        0.259259        0.884083        0        
C1        C        0.615385        0.351852        0.884083        0        
C2        C        0.653846        0.407408        0.884083        0        
C3        C        0.615385        0.42592500000000005        0.884083        0        
C4        C        0.653846        0.37037        0.884083        0        
C1        C        0.615385        0.46296300000000007        0.884083        0        
C2        C        0.653846        0.518519        0.884083        0        
C3        C        0.615385        0.537037        0.884083        0        
C4        C        0.653846        0.481481        0.884083        0        
C1        C        0.615385        0.574075        0.884083        0        
C2        C        0.653846        0.62963        0.884083        0        
C3        C        0.615385        0.648148        0.884083        0        
C4        C        0.653846        0.592592        0.884083        0        
C1        C        0.692308        0.018519        0.884083        0        
C2        C        0.730769        0.074075        0.884083        0        
C3        C        0.692308        0.092592        0.884083        0        
C4        C        0.730769        0.037037        0.884083        0        
C1        C        0.692308        0.12963        0.884083        0        
C2        C        0.730769        0.185185        0.884083        0        
C3        C        0.692308        0.203703        0.884083        0        
C4        C        0.730769        0.148148        0.884083        0        
C1        C        0.692308        0.24074099999999998        0.884083        0        
C2        C        0.730769        0.296297        0.884083        0        
C3        C        0.692308        0.314815        0.884083        0        
C4        C        0.730769        0.259259        0.884083        0        
C1        C        0.692308        0.351852        0.884083        0        
C2        C        0.730769        0.407408        0.884083        0        
C3        C        0.692308        0.42592500000000005        0.884083        0        
C4        C        0.730769        0.37037        0.884083        0        
C1        C        0.692308        0.46296300000000007        0.884083        0        
C2        C        0.730769        0.518519        0.884083        0        
C3        C        0.692308        0.537037        0.884083        0        
C4        C        0.730769        0.481481        0.884083        0        
C1        C        0.692308        0.574075        0.884083        0        
C2        C        0.730769        0.62963        0.884083        0        
C3        C        0.692308        0.648148        0.884083        0        
C4        C        0.730769        0.592592        0.884083        0        
C1        C        0.769231        0.018519        0.884083        0        
C2        C        0.807692        0.074075        0.884083        0        
C3        C        0.769231        0.092592        0.884083        0        
C4        C        0.807692        0.037037        0.884083        0        
C1        C        0.769231        0.12963        0.884083        0        
C2        C        0.807692        0.185185        0.884083        0        
C3        C        0.769231        0.203703        0.884083        0        
C4        C        0.807692        0.148148        0.884083        0        
C1        C        0.769231        0.24074099999999998        0.884083        0        
C2        C        0.807692        0.296297        0.884083        0        
C3        C        0.769231        0.314815        0.884083        0        
C4        C        0.807692        0.259259        0.884083        0        
C1        C        0.769231        0.351852        0.884083        0        
C2        C        0.807692        0.407408        0.884083        0        
C3        C        0.769231        0.42592500000000005        0.884083        0        
C4        C        0.807692        0.37037        0.884083        0        
C1        C        0.769231        0.46296300000000007        0.884083        0        
C2        C        0.807692        0.518519        0.884083        0        
C3        C        0.769231        0.537037        0.884083        0        
C4        C        0.807692        0.481481        0.884083        0        
C1        C        0.769231        0.574075        0.884083        0        
C2        C        0.807692        0.62963        0.884083        0        
C3        C        0.769231        0.648148        0.884083        0        
C4        C        0.807692        0.592592        0.884083        0        
C1        C        0.846154        0.018519        0.884083        0        
C2        C        0.884615        0.074075        0.884083        0        
C3        C        0.846154        0.092592        0.884083        0        
C4        C        0.884615        0.037037        0.884083        0        
C1        C        0.846154        0.12963        0.884083        0        
C2        C        0.884615        0.185185        0.884083        0        
C3        C        0.846154        0.203703        0.884083        0        
C4        C        0.884615        0.148148        0.884083        0        
C1        C        0.846154        0.24074099999999998        0.884083        0        
C2        C        0.884615        0.296297        0.884083        0        
C3        C        0.846154        0.314815        0.884083        0        
C4        C        0.884615        0.259259        0.884083        0        
C1        C        0.846154        0.351852        0.884083        0        
C2        C        0.884615        0.407408        0.884083        0        
C3        C        0.846154        0.42592500000000005        0.884083        0        
C4        C        0.884615        0.37037        0.884083        0        
C1        C        0.846154        0.46296300000000007        0.884083        0        
C2        C        0.884615        0.518519        0.884083        0        
C3        C        0.846154        0.537037        0.884083        0        
C4        C        0.884615        0.481481        0.884083        0        
C1        C        0.846154        0.574075        0.884083        0        
C2        C        0.884615        0.62963        0.884083        0        
C3        C        0.846154        0.648148        0.884083        0        
C4        C        0.884615        0.592592        0.884083        0        
C1        C        0.923077        0.018519        0.884083        0        
C2        C        0.961538        0.074075        0.884083        0        
C3        C        0.923077        0.092592        0.884083        0        
C4        C        0.961538        0.037037        0.884083        0        
C1        C        0.923077        0.12963        0.884083        0        
C2        C        0.961538        0.185185        0.884083        0        
C3        C        0.923077        0.203703        0.884083        0        
C4        C        0.961538        0.148148        0.884083        0        
C1        C        0.923077        0.24074099999999998        0.884083        0        
C2        C        0.961538        0.296297        0.884083        0        
C3        C        0.923077        0.314815        0.884083        0        
C4        C        0.961538        0.259259        0.884083        0        
C1        C        0.923077        0.351852        0.884083        0        
C2        C        0.961538        0.407408        0.884083        0        
C3        C        0.923077        0.42592500000000005        0.884083        0        
C4        C        0.961538        0.37037        0.884083        0        
C1        C        0.923077        0.46296300000000007        0.884083        0        
C2        C        0.961538        0.518519        0.884083        0        
C3        C        0.923077        0.537037        0.884083        0        
C4        C        0.961538        0.481481        0.884083        0        
C1        C        0.923077        0.574075        0.884083        0        
C2        C        0.961538        0.62963        0.884083        0        
C3        C        0.923077        0.648148        0.884083        0        
C4        C        0.961538        0.592592        0.884083        0        
C1        C        1.0        0.018519        0.884083        0        
C2        C        1.038462        0.074075        0.884083        0        
C3        C        1.0        0.092592        0.884083        0        
C4        C        1.038462        0.037037        0.884083        0        
C1        C        1.0        0.12963        0.884083        0        
C2        C        1.038462        0.185185        0.884083        0        
C3        C        1.0        0.203703        0.884083        0        
C4        C        1.038462        0.148148        0.884083        0        
C1        C        1.0        0.24074099999999998        0.884083        0        
C2        C        1.038462        0.296297        0.884083        0        
C3        C        1.0        0.314815        0.884083        0        
C4        C        1.038462        0.259259        0.884083        0        
C1        C        1.0        0.351852        0.884083        0        
C2        C        1.038462        0.407408        0.884083        0        
C3        C        1.0        0.42592500000000005        0.884083        0        
C4        C        1.038462        0.37037        0.884083        0        
C1        C        1.0        0.46296300000000007        0.884083        0        
C2        C        1.038462        0.518519        0.884083        0        
C3        C        1.0        0.537037        0.884083        0        
C4        C        1.038462        0.481481        0.884083        0        
C1        C        1.0        0.574075        0.884083        0        
C2        C        1.038462        0.62963        0.884083        0        
C3        C        1.0        0.648148        0.884083        0        
C4        C        1.038462        0.592592        0.884083        0        
C1        C        0.0        0.685186        0.884083        0        
C1        C        0.076923        0.685186        0.884083        0        
C1        C        0.153846        0.685186        0.884083        0        
C1        C        0.230769        0.685186        0.884083        0        
C1        C        0.307692        0.685186        0.884083        0        
C1        C        0.384615        0.685186        0.884083        0        
C1        C        0.461538        0.685186        0.884083        0        
C1        C        0.538462        0.685186        0.884083        0        
C1        C        0.615385        0.685186        0.884083        0        
C1        C        0.692308        0.685186        0.884083        0        
C1        C        0.769231        0.685186        0.884083        0        
C1        C        0.846154        0.685186        0.884083        0        
C1        C        0.923077        0.685186        0.884083        0        
C1        C        1.0        0.685186        0.884083        0        
C2        C        0.038462        0.740741        0.884083        0        
C2        C        0.115385        0.740741        0.884083        0        
C2        C        0.192308        0.740741        0.884083        0        
C2        C        0.269231        0.740741        0.884083        0        
C2        C        0.346154        0.740741        0.884083        0        
C2        C        0.423077        0.740741        0.884083        0        
C2        C        0.5        0.740741        0.884083        0        
C2        C        0.576923        0.740741        0.884083        0        
C2        C        0.653846        0.740741        0.884083        0        
C2        C        0.730769        0.740741        0.884083        0        
C2        C        0.807692        0.740741        0.884083        0        
C2        C        0.884615        0.740741        0.884083        0        
C2        C        0.961538        0.740741        0.884083        0        
C2        C        1.038462        0.740741        0.884083        0        
C3        C        0.0        0.759259        0.884083        0        
C3        C        0.076923        0.759259        0.884083        0        
C3        C        0.153846        0.759259        0.884083        0        
C3        C        0.230769        0.759259        0.884083        0        
C3        C        0.307692        0.759259        0.884083        0        
C3        C        0.384615        0.759259        0.884083        0        
C3        C        0.461538        0.759259        0.884083        0        
C3        C        0.538462        0.759259        0.884083        0        
C3        C        0.615385        0.759259        0.884083        0        
C3        C        0.692308        0.759259        0.884083        0        
C3        C        0.769231        0.759259        0.884083        0        
C3        C        0.846154        0.759259        0.884083        0        
C3        C        0.923077        0.759259        0.884083        0        
C3        C        1.0        0.759259        0.884083        0        
C4        C        0.038462        0.703703        0.884083        0        
C4        C        0.115385        0.703703        0.884083        0        
C4        C        0.192308        0.703703        0.884083        0        
C4        C        0.269231        0.703703        0.884083        0        
C4        C        0.346154        0.703703        0.884083        0        
C4        C        0.423077        0.703703        0.884083        0        
C4        C        0.5        0.703703        0.884083        0        
C4        C        0.576923        0.703703        0.884083        0        
C4        C        0.653846        0.703703        0.884083        0        
C4        C        0.730769        0.703703        0.884083        0        
C4        C        0.807692        0.703703        0.884083        0        
C4        C        0.884615        0.703703        0.884083        0        
C4        C        0.961538        0.703703        0.884083        0        
C4        C        1.038462        0.703703        0.884083        0        
C1        C        0.0        0.796297        0.884083        0        
C1        C        0.076923        0.796297        0.884083        0        
C1        C        0.153846        0.796297        0.884083        0        
C1        C        0.230769        0.796297        0.884083        0        
C1        C        0.307692        0.796297        0.884083        0        
C1        C        0.384615        0.796297        0.884083        0        
C1        C        0.461538        0.796297        0.884083        0        
C1        C        0.538462        0.796297        0.884083        0        
C1        C        0.615385        0.796297        0.884083        0        
C1        C        0.692308        0.796297        0.884083        0        
C1        C        0.769231        0.796297        0.884083        0        
C1        C        0.846154        0.796297        0.884083        0        
C1        C        0.923077        0.796297        0.884083        0        
C1        C        1.0        0.796297        0.884083        0        
C2        C        0.038462        0.851852        0.884083        0        
C2        C        0.115385        0.851852        0.884083        0        
C2        C        0.192308        0.851852        0.884083        0        
C2        C        0.269231        0.851852        0.884083        0        
C2        C        0.346154        0.851852        0.884083        0        
C2        C        0.423077        0.851852        0.884083        0        
C2        C        0.5        0.851852        0.884083        0        
C2        C        0.576923        0.851852        0.884083        0        
C2        C        0.653846        0.851852        0.884083        0        
C2        C        0.730769        0.851852        0.884083        0        
C2        C        0.807692        0.851852        0.884083        0        
C2        C        0.884615        0.851852        0.884083        0        
C2        C        0.961538        0.851852        0.884083        0        
C2        C        1.038462        0.851852        0.884083        0        
C3        C        0.0        0.87037        0.884083        0        
C3        C        0.076923        0.87037        0.884083        0        
C3        C        0.153846        0.87037        0.884083        0        
C3        C        0.230769        0.87037        0.884083        0        
C3        C        0.307692        0.87037        0.884083        0        
C3        C        0.384615        0.87037        0.884083        0        
C3        C        0.461538        0.87037        0.884083        0        
C3        C        0.538462        0.87037        0.884083        0        
C3        C        0.615385        0.87037        0.884083        0        
C3        C        0.692308        0.87037        0.884083        0        
C3        C        0.769231        0.87037        0.884083        0        
C3        C        0.846154        0.87037        0.884083        0        
C3        C        0.923077        0.87037        0.884083        0        
C3        C        1.0        0.87037        0.884083        0        
C4        C        0.038462        0.814814        0.884083        0        
C4        C        0.115385        0.814814        0.884083        0        
C4        C        0.192308        0.814814        0.884083        0        
C4        C        0.269231        0.814814        0.884083        0        
C4        C        0.346154        0.814814        0.884083        0        
C4        C        0.423077        0.814814        0.884083        0        
C4        C        0.5        0.814814        0.884083        0        
C4        C        0.576923        0.814814        0.884083        0        
C4        C        0.653846        0.814814        0.884083        0        
C4        C        0.730769        0.814814        0.884083        0        
C4        C        0.807692        0.814814        0.884083        0        
C4        C        0.884615        0.814814        0.884083        0        
C4        C        0.961538        0.814814        0.884083        0        
C4        C        1.038462        0.814814        0.884083        0        
C1        C        0.0        0.907408        0.884083        0        
C1        C        0.076923        0.907408        0.884083        0        
C1        C        0.153846        0.907408        0.884083        0        
C1        C        0.230769        0.907408        0.884083        0        
C1        C        0.307692        0.907408        0.884083        0        
C1        C        0.384615        0.907408        0.884083        0        
C1        C        0.461538        0.907408        0.884083        0        
C1        C        0.538462        0.907408        0.884083        0        
C1        C        0.615385        0.907408        0.884083        0        
C1        C        0.692308        0.907408        0.884083        0        
C1        C        0.769231        0.907408        0.884083        0        
C1        C        0.846154        0.907408        0.884083        0        
C1        C        0.923077        0.907408        0.884083        0        
C1        C        1.0        0.907408        0.884083        0        
C2        C        0.038462        0.962963        0.884083        0        
C2        C        0.115385        0.962963        0.884083        0        
C2        C        0.192308        0.962963        0.884083        0        
C2        C        0.269231        0.962963        0.884083        0        
C2        C        0.346154        0.962963        0.884083        0        
C2        C        0.423077        0.962963        0.884083        0        
C2        C        0.5        0.962963        0.884083        0        
C2        C        0.576923        0.962963        0.884083        0        
C2        C        0.653846        0.962963        0.884083        0        
C2        C        0.730769        0.962963        0.884083        0        
C2        C        0.807692        0.962963        0.884083        0        
C2        C        0.884615        0.962963        0.884083        0        
C2        C        0.961538        0.962963        0.884083        0        
C2        C        1.038462        0.962963        0.884083        0        
C3        C        0.0        0.9814809999999999        0.884083        0        
C3        C        0.076923        0.9814809999999999        0.884083        0        
C3        C        0.153846        0.9814809999999999        0.884083        0        
C3        C        0.230769        0.9814809999999999        0.884083        0        
C3        C        0.307692        0.9814809999999999        0.884083        0        
C3        C        0.384615        0.9814809999999999        0.884083        0        
C3        C        0.461538        0.9814809999999999        0.884083        0        
C3        C        0.538462        0.9814809999999999        0.884083        0        
C3        C        0.615385        0.9814809999999999        0.884083        0        
C3        C        0.692308        0.9814809999999999        0.884083        0        
C3        C        0.769231        0.9814809999999999        0.884083        0        
C3        C        0.846154        0.9814809999999999        0.884083        0        
C3        C        0.923077        0.9814809999999999        0.884083        0        
C3        C        1.0        0.9814809999999999        0.884083        0        
C4        C        0.038462        0.925925        0.884083        0        
C4        C        0.115385        0.925925        0.884083        0        
C4        C        0.192308        0.925925        0.884083        0        
C4        C        0.269231        0.925925        0.884083        0        
C4        C        0.346154        0.925925        0.884083        0        
C4        C        0.423077        0.925925        0.884083        0        
C4        C        0.5        0.925925        0.884083        0        
C4        C        0.576923        0.925925        0.884083        0        
C4        C        0.653846        0.925925        0.884083        0        
C4        C        0.730769        0.925925        0.884083        0        
C4        C        0.807692        0.925925        0.884083        0        
C4        C        0.884615        0.925925        0.884083        0        
C4        C        0.961538        0.925925        0.884083        0        
C4        C        1.038462        0.925925        0.884083        0        
C1        C        0.0        0.018519        1.0        0        
C2        C        0.038462        0.074075        1.0        0        
C3        C        0.0        0.092592        1.0        0        
C4        C        0.038462        0.037037        1.0        0        
C1        C        0.0        0.12963        1.0        0        
C2        C        0.038462        0.185185        1.0        0        
C3        C        0.0        0.203703        1.0        0        
C4        C        0.038462        0.148148        1.0        0        
C1        C        0.0        0.24074099999999998        1.0        0        
C2        C        0.038462        0.296297        1.0        0        
C3        C        0.0        0.314815        1.0        0        
C4        C        0.038462        0.259259        1.0        0        
C1        C        0.0        0.351852        1.0        0        
C2        C        0.038462        0.407408        1.0        0        
C3        C        0.0        0.42592500000000005        1.0        0        
C4        C        0.038462        0.37037        1.0        0        
C1        C        0.0        0.46296300000000007        1.0        0        
C2        C        0.038462        0.518519        1.0        0        
C3        C        0.0        0.537037        1.0        0        
C4        C        0.038462        0.481481        1.0        0        
C1        C        0.0        0.574075        1.0        0        
C2        C        0.038462        0.62963        1.0        0        
C3        C        0.0        0.648148        1.0        0        
C4        C        0.038462        0.592592        1.0        0        
C1        C        0.076923        0.018519        1.0        0        
C2        C        0.115385        0.074075        1.0        0        
C3        C        0.076923        0.092592        1.0        0        
C4        C        0.115385        0.037037        1.0        0        
C1        C        0.076923        0.12963        1.0        0        
C2        C        0.115385        0.185185        1.0        0        
C3        C        0.076923        0.203703        1.0        0        
C4        C        0.115385        0.148148        1.0        0        
C1        C        0.076923        0.24074099999999998        1.0        0        
C2        C        0.115385        0.296297        1.0        0        
C3        C        0.076923        0.314815        1.0        0        
C4        C        0.115385        0.259259        1.0        0        
C1        C        0.076923        0.351852        1.0        0        
C2        C        0.115385        0.407408        1.0        0        
C3        C        0.076923        0.42592500000000005        1.0        0        
C4        C        0.115385        0.37037        1.0        0        
C1        C        0.076923        0.46296300000000007        1.0        0        
C2        C        0.115385        0.518519        1.0        0        
C3        C        0.076923        0.537037        1.0        0        
C4        C        0.115385        0.481481        1.0        0        
C1        C        0.076923        0.574075        1.0        0        
C2        C        0.115385        0.62963        1.0        0        
C3        C        0.076923        0.648148        1.0        0        
C4        C        0.115385        0.592592        1.0        0        
C1        C        0.153846        0.018519        1.0        0        
C2        C        0.192308        0.074075        1.0        0        
C3        C        0.153846        0.092592        1.0        0        
C4        C        0.192308        0.037037        1.0        0        
C1        C        0.153846        0.12963        1.0        0        
C2        C        0.192308        0.185185        1.0        0        
C3        C        0.153846        0.203703        1.0        0        
C4        C        0.192308        0.148148        1.0        0        
C1        C        0.153846        0.24074099999999998        1.0        0        
C2        C        0.192308        0.296297        1.0        0        
C3        C        0.153846        0.314815        1.0        0        
C4        C        0.192308        0.259259        1.0        0        
C1        C        0.153846        0.351852        1.0        0        
C2        C        0.192308        0.407408        1.0        0        
C3        C        0.153846        0.42592500000000005        1.0        0        
C4        C        0.192308        0.37037        1.0        0        
C1        C        0.153846        0.46296300000000007        1.0        0        
C2        C        0.192308        0.518519        1.0        0        
C3        C        0.153846        0.537037        1.0        0        
C4        C        0.192308        0.481481        1.0        0        
C1        C        0.153846        0.574075        1.0        0        
C2        C        0.192308        0.62963        1.0        0        
C3        C        0.153846        0.648148        1.0        0        
C4        C        0.192308        0.592592        1.0        0        
C1        C        0.230769        0.018519        1.0        0        
C2        C        0.269231        0.074075        1.0        0        
C3        C        0.230769        0.092592        1.0        0        
C4        C        0.269231        0.037037        1.0        0        
C1        C        0.230769        0.12963        1.0        0        
C2        C        0.269231        0.185185        1.0        0        
C3        C        0.230769        0.203703        1.0        0        
C4        C        0.269231        0.148148        1.0        0        
C1        C        0.230769        0.24074099999999998        1.0        0        
C2        C        0.269231        0.296297        1.0        0        
C3        C        0.230769        0.314815        1.0        0        
C4        C        0.269231        0.259259        1.0        0        
C1        C        0.230769        0.351852        1.0        0        
C2        C        0.269231        0.407408        1.0        0        
C3        C        0.230769        0.42592500000000005        1.0        0        
C4        C        0.269231        0.37037        1.0        0        
C1        C        0.230769        0.46296300000000007        1.0        0        
C2        C        0.269231        0.518519        1.0        0        
C3        C        0.230769        0.537037        1.0        0        
C4        C        0.269231        0.481481        1.0        0        
C1        C        0.230769        0.574075        1.0        0        
C2        C        0.269231        0.62963        1.0        0        
C3        C        0.230769        0.648148        1.0        0        
C4        C        0.269231        0.592592        1.0        0        
C1        C        0.307692        0.018519        1.0        0        
C2        C        0.346154        0.074075        1.0        0        
C3        C        0.307692        0.092592        1.0        0        
C4        C        0.346154        0.037037        1.0        0        
C1        C        0.307692        0.12963        1.0        0        
C2        C        0.346154        0.185185        1.0        0        
C3        C        0.307692        0.203703        1.0        0        
C4        C        0.346154        0.148148        1.0        0        
C1        C        0.307692        0.24074099999999998        1.0        0        
C2        C        0.346154        0.296297        1.0        0        
C3        C        0.307692        0.314815        1.0        0        
C4        C        0.346154        0.259259        1.0        0        
C1        C        0.307692        0.351852        1.0        0        
C2        C        0.346154        0.407408        1.0        0        
C3        C        0.307692        0.42592500000000005        1.0        0        
C4        C        0.346154        0.37037        1.0        0        
C1        C        0.307692        0.46296300000000007        1.0        0        
C2        C        0.346154        0.518519        1.0        0        
C3        C        0.307692        0.537037        1.0        0        
C4        C        0.346154        0.481481        1.0        0        
C1        C        0.307692        0.574075        1.0        0        
C2        C        0.346154        0.62963        1.0        0        
C3        C        0.307692        0.648148        1.0        0        
C4        C        0.346154        0.592592        1.0        0        
C1        C        0.384615        0.018519        1.0        0        
C2        C        0.423077        0.074075        1.0        0        
C3        C        0.384615        0.092592        1.0        0        
C4        C        0.423077        0.037037        1.0        0        
C1        C        0.384615        0.12963        1.0        0        
C2        C        0.423077        0.185185        1.0        0        
C3        C        0.384615        0.203703        1.0        0        
C4        C        0.423077        0.148148        1.0        0        
C1        C        0.384615        0.24074099999999998        1.0        0        
C2        C        0.423077        0.296297        1.0        0        
C3        C        0.384615        0.314815        1.0        0        
C4        C        0.423077        0.259259        1.0        0        
C1        C        0.384615        0.351852        1.0        0        
C2        C        0.423077        0.407408        1.0        0        
C3        C        0.384615        0.42592500000000005        1.0        0        
C4        C        0.423077        0.37037        1.0        0        
C1        C        0.384615        0.46296300000000007        1.0        0        
C2        C        0.423077        0.518519        1.0        0        
C3        C        0.384615        0.537037        1.0        0        
C4        C        0.423077        0.481481        1.0        0        
C1        C        0.384615        0.574075        1.0        0        
C2        C        0.423077        0.62963        1.0        0        
C3        C        0.384615        0.648148        1.0        0        
C4        C        0.423077        0.592592        1.0        0        
C1        C        0.461538        0.018519        1.0        0        
C2        C        0.5        0.074075        1.0        0        
C3        C        0.461538        0.092592        1.0        0        
C4        C        0.5        0.037037        1.0        0        
C1        C        0.461538        0.12963        1.0        0        
C2        C        0.5        0.185185        1.0        0        
C3        C        0.461538        0.203703        1.0        0        
C4        C        0.5        0.148148        1.0        0        
C1        C        0.461538        0.24074099999999998        1.0        0        
C2        C        0.5        0.296297        1.0        0        
C3        C        0.461538        0.314815        1.0        0        
C4        C        0.5        0.259259        1.0        0        
C1        C        0.461538        0.351852        1.0        0        
C2        C        0.5        0.407408        1.0        0        
C3        C        0.461538        0.42592500000000005        1.0        0        
C4        C        0.5        0.37037        1.0        0        
C1        C        0.461538        0.46296300000000007        1.0        0        
C2        C        0.5        0.518519        1.0        0        
C3        C        0.461538        0.537037        1.0        0        
C4        C        0.5        0.481481        1.0        0        
C1        C        0.461538        0.574075        1.0        0        
C2        C        0.5        0.62963        1.0        0        
C3        C        0.461538        0.648148        1.0        0        
C4        C        0.5        0.592592        1.0        0        
C1        C        0.538462        0.018519        1.0        0        
C2        C        0.576923        0.074075        1.0        0        
C3        C        0.538462        0.092592        1.0        0        
C4        C        0.576923        0.037037        1.0        0        
C1        C        0.538462        0.12963        1.0        0        
C2        C        0.576923        0.185185        1.0        0        
C3        C        0.538462        0.203703        1.0        0        
C4        C        0.576923        0.148148        1.0        0        
C1        C        0.538462        0.24074099999999998        1.0        0        
C2        C        0.576923        0.296297        1.0        0        
C3        C        0.538462        0.314815        1.0        0        
C4        C        0.576923        0.259259        1.0        0        
C1        C        0.538462        0.351852        1.0        0        
C2        C        0.576923        0.407408        1.0        0        
C3        C        0.538462        0.42592500000000005        1.0        0        
C4        C        0.576923        0.37037        1.0        0        
C1        C        0.538462        0.46296300000000007        1.0        0        
C2        C        0.576923        0.518519        1.0        0        
C3        C        0.538462        0.537037        1.0        0        
C4        C        0.576923        0.481481        1.0        0        
C1        C        0.538462        0.574075        1.0        0        
C2        C        0.576923        0.62963        1.0        0        
C3        C        0.538462        0.648148        1.0        0        
C4        C        0.576923        0.592592        1.0        0        
C1        C        0.615385        0.018519        1.0        0        
C2        C        0.653846        0.074075        1.0        0        
C3        C        0.615385        0.092592        1.0        0        
C4        C        0.653846        0.037037        1.0        0        
C1        C        0.615385        0.12963        1.0        0        
C2        C        0.653846        0.185185        1.0        0        
C3        C        0.615385        0.203703        1.0        0        
C4        C        0.653846        0.148148        1.0        0        
C1        C        0.615385        0.24074099999999998        1.0        0        
C2        C        0.653846        0.296297        1.0        0        
C3        C        0.615385        0.314815        1.0        0        
C4        C        0.653846        0.259259        1.0        0        
C1        C        0.615385        0.351852        1.0        0        
C2        C        0.653846        0.407408        1.0        0        
C3        C        0.615385        0.42592500000000005        1.0        0        
C4        C        0.653846        0.37037        1.0        0        
C1        C        0.615385        0.46296300000000007        1.0        0        
C2        C        0.653846        0.518519        1.0        0        
C3        C        0.615385        0.537037        1.0        0        
C4        C        0.653846        0.481481        1.0        0        
C1        C        0.615385        0.574075        1.0        0        
C2        C        0.653846        0.62963        1.0        0        
C3        C        0.615385        0.648148        1.0        0        
C4        C        0.653846        0.592592        1.0        0        
C1        C        0.692308        0.018519        1.0        0        
C2        C        0.730769        0.074075        1.0        0        
C3        C        0.692308        0.092592        1.0        0        
C4        C        0.730769        0.037037        1.0        0        
C1        C        0.692308        0.12963        1.0        0        
C2        C        0.730769        0.185185        1.0        0        
C3        C        0.692308        0.203703        1.0        0        
C4        C        0.730769        0.148148        1.0        0        
C1        C        0.692308        0.24074099999999998        1.0        0        
C2        C        0.730769        0.296297        1.0        0        
C3        C        0.692308        0.314815        1.0        0        
C4        C        0.730769        0.259259        1.0        0        
C1        C        0.692308        0.351852        1.0        0        
C2        C        0.730769        0.407408        1.0        0        
C3        C        0.692308        0.42592500000000005        1.0        0        
C4        C        0.730769        0.37037        1.0        0        
C1        C        0.692308        0.46296300000000007        1.0        0        
C2        C        0.730769        0.518519        1.0        0        
C3        C        0.692308        0.537037        1.0        0        
C4        C        0.730769        0.481481        1.0        0        
C1        C        0.692308        0.574075        1.0        0        
C2        C        0.730769        0.62963        1.0        0        
C3        C        0.692308        0.648148        1.0        0        
C4        C        0.730769        0.592592        1.0        0        
C1        C        0.769231        0.018519        1.0        0        
C2        C        0.807692        0.074075        1.0        0        
C3        C        0.769231        0.092592        1.0        0        
C4        C        0.807692        0.037037        1.0        0        
C1        C        0.769231        0.12963        1.0        0        
C2        C        0.807692        0.185185        1.0        0        
C3        C        0.769231        0.203703        1.0        0        
C4        C        0.807692        0.148148        1.0        0        
C1        C        0.769231        0.24074099999999998        1.0        0        
C2        C        0.807692        0.296297        1.0        0        
C3        C        0.769231        0.314815        1.0        0        
C4        C        0.807692        0.259259        1.0        0        
C1        C        0.769231        0.351852        1.0        0        
C2        C        0.807692        0.407408        1.0        0        
C3        C        0.769231        0.42592500000000005        1.0        0        
C4        C        0.807692        0.37037        1.0        0        
C1        C        0.769231        0.46296300000000007        1.0        0        
C2        C        0.807692        0.518519        1.0        0        
C3        C        0.769231        0.537037        1.0        0        
C4        C        0.807692        0.481481        1.0        0        
C1        C        0.769231        0.574075        1.0        0        
C2        C        0.807692        0.62963        1.0        0        
C3        C        0.769231        0.648148        1.0        0        
C4        C        0.807692        0.592592        1.0        0        
C1        C        0.846154        0.018519        1.0        0        
C2        C        0.884615        0.074075        1.0        0        
C3        C        0.846154        0.092592        1.0        0        
C4        C        0.884615        0.037037        1.0        0        
C1        C        0.846154        0.12963        1.0        0        
C2        C        0.884615        0.185185        1.0        0        
C3        C        0.846154        0.203703        1.0        0        
C4        C        0.884615        0.148148        1.0        0        
C1        C        0.846154        0.24074099999999998        1.0        0        
C2        C        0.884615        0.296297        1.0        0        
C3        C        0.846154        0.314815        1.0        0        
C4        C        0.884615        0.259259        1.0        0        
C1        C        0.846154        0.351852        1.0        0        
C2        C        0.884615        0.407408        1.0        0        
C3        C        0.846154        0.42592500000000005        1.0        0        
C4        C        0.884615        0.37037        1.0        0        
C1        C        0.846154        0.46296300000000007        1.0        0        
C2        C        0.884615        0.518519        1.0        0        
C3        C        0.846154        0.537037        1.0        0        
C4        C        0.884615        0.481481        1.0        0        
C1        C        0.846154        0.574075        1.0        0        
C2        C        0.884615        0.62963        1.0        0        
C3        C        0.846154        0.648148        1.0        0        
C4        C        0.884615        0.592592        1.0        0        
C1        C        0.923077        0.018519        1.0        0        
C2        C        0.961538        0.074075        1.0        0        
C3        C        0.923077        0.092592        1.0        0        
C4        C        0.961538        0.037037        1.0        0        
C1        C        0.923077        0.12963        1.0        0        
C2        C        0.961538        0.185185        1.0        0        
C3        C        0.923077        0.203703        1.0        0        
C4        C        0.961538        0.148148        1.0        0        
C1        C        0.923077        0.24074099999999998        1.0        0        
C2        C        0.961538        0.296297        1.0        0        
C3        C        0.923077        0.314815        1.0        0        
C4        C        0.961538        0.259259        1.0        0        
C1        C        0.923077        0.351852        1.0        0        
C2        C        0.961538        0.407408        1.0        0        
C3        C        0.923077        0.42592500000000005        1.0        0        
C4        C        0.961538        0.37037        1.0        0        
C1        C        0.923077        0.46296300000000007        1.0        0        
C2        C        0.961538        0.518519        1.0        0        
C3        C        0.923077        0.537037        1.0        0        
C4        C        0.961538        0.481481        1.0        0        
C1        C        0.923077        0.574075        1.0        0        
C2        C        0.961538        0.62963        1.0        0        
C3        C        0.923077        0.648148        1.0        0        
C4        C        0.961538        0.592592        1.0        0        
C1        C        1.0        0.018519        1.0        0        
C2        C        1.038462        0.074075        1.0        0        
C3        C        1.0        0.092592        1.0        0        
C4        C        1.038462        0.037037        1.0        0        
C1        C        1.0        0.12963        1.0        0        
C2        C        1.038462        0.185185        1.0        0        
C3        C        1.0        0.203703        1.0        0        
C4        C        1.038462        0.148148        1.0        0        
C1        C        1.0        0.24074099999999998        1.0        0        
C2        C        1.038462        0.296297        1.0        0        
C3        C        1.0        0.314815        1.0        0        
C4        C        1.038462        0.259259        1.0        0        
C1        C        1.0        0.351852        1.0        0        
C2        C        1.038462        0.407408        1.0        0        
C3        C        1.0        0.42592500000000005        1.0        0        
C4        C        1.038462        0.37037        1.0        0        
C1        C        1.0        0.46296300000000007        1.0        0        
C2        C        1.038462        0.518519        1.0        0        
C3        C        1.0        0.537037        1.0        0        
C4        C        1.038462        0.481481        1.0        0        
C1        C        1.0        0.574075        1.0        0        
C2        C        1.038462        0.62963        1.0        0        
C3        C        1.0        0.648148        1.0        0        
C4        C        1.038462        0.592592        1.0        0        
C1        C        0.0        0.685186        1.0        0        
C1        C        0.076923        0.685186        1.0        0        
C1        C        0.153846        0.685186        1.0        0        
C1        C        0.230769        0.685186        1.0        0        
C1        C        0.307692        0.685186        1.0        0        
C1        C        0.384615        0.685186        1.0        0        
C1        C        0.461538        0.685186        1.0        0        
C1        C        0.538462        0.685186        1.0        0        
C1        C        0.615385        0.685186        1.0        0        
C1        C        0.692308        0.685186        1.0        0        
C1        C        0.769231        0.685186        1.0        0        
C1        C        0.846154        0.685186        1.0        0        
C1        C        0.923077        0.685186        1.0        0        
C1        C        1.0        0.685186        1.0        0        
C2        C        0.038462        0.740741        1.0        0        
C2        C        0.115385        0.740741        1.0        0        
C2        C        0.192308        0.740741        1.0        0        
C2        C        0.269231        0.740741        1.0        0        
C2        C        0.346154        0.740741        1.0        0        
C2        C        0.423077        0.740741        1.0        0        
C2        C        0.5        0.740741        1.0        0        
C2        C        0.576923        0.740741        1.0        0        
C2        C        0.653846        0.740741        1.0        0        
C2        C        0.730769        0.740741        1.0        0        
C2        C        0.807692        0.740741        1.0        0        
C2        C        0.884615        0.740741        1.0        0        
C2        C        0.961538        0.740741        1.0        0        
C2        C        1.038462        0.740741        1.0        0        
C3        C        0.0        0.759259        1.0        0        
C3        C        0.076923        0.759259        1.0        0        
C3        C        0.153846        0.759259        1.0        0        
C3        C        0.230769        0.759259        1.0        0        
C3        C        0.307692        0.759259        1.0        0        
C3        C        0.384615        0.759259        1.0        0        
C3        C        0.461538        0.759259        1.0        0        
C3        C        0.538462        0.759259        1.0        0        
C3        C        0.615385        0.759259        1.0        0        
C3        C        0.692308        0.759259        1.0        0        
C3        C        0.769231        0.759259        1.0        0        
C3        C        0.846154        0.759259        1.0        0        
C3        C        0.923077        0.759259        1.0        0        
C3        C        1.0        0.759259        1.0        0        
C4        C        0.038462        0.703703        1.0        0        
C4        C        0.115385        0.703703        1.0        0        
C4        C        0.192308        0.703703        1.0        0        
C4        C        0.269231        0.703703        1.0        0        
C4        C        0.346154        0.703703        1.0        0        
C4        C        0.423077        0.703703        1.0        0        
C4        C        0.5        0.703703        1.0        0        
C4        C        0.576923        0.703703        1.0        0        
C4        C        0.653846        0.703703        1.0        0        
C4        C        0.730769        0.703703        1.0        0        
C4        C        0.807692        0.703703        1.0        0        
C4        C        0.884615        0.703703        1.0        0        
C4        C        0.961538        0.703703        1.0        0        
C4        C        1.038462        0.703703        1.0        0        
C1        C        0.0        0.796297        1.0        0        
C1        C        0.076923        0.796297        1.0        0        
C1        C        0.153846        0.796297        1.0        0        
C1        C        0.230769        0.796297        1.0        0        
C1        C        0.307692        0.796297        1.0        0        
C1        C        0.384615        0.796297        1.0        0        
C1        C        0.461538        0.796297        1.0        0        
C1        C        0.538462        0.796297        1.0        0        
C1        C        0.615385        0.796297        1.0        0        
C1        C        0.692308        0.796297        1.0        0        
C1        C        0.769231        0.796297        1.0        0        
C1        C        0.846154        0.796297        1.0        0        
C1        C        0.923077        0.796297        1.0        0        
C1        C        1.0        0.796297        1.0        0        
C2        C        0.038462        0.851852        1.0        0        
C2        C        0.115385        0.851852        1.0        0        
C2        C        0.192308        0.851852        1.0        0        
C2        C        0.269231        0.851852        1.0        0        
C2        C        0.346154        0.851852        1.0        0        
C2        C        0.423077        0.851852        1.0        0        
C2        C        0.5        0.851852        1.0        0        
C2        C        0.576923        0.851852        1.0        0        
C2        C        0.653846        0.851852        1.0        0        
C2        C        0.730769        0.851852        1.0        0        
C2        C        0.807692        0.851852        1.0        0        
C2        C        0.884615        0.851852        1.0        0        
C2        C        0.961538        0.851852        1.0        0        
C2        C        1.038462        0.851852        1.0        0        
C3        C        0.0        0.87037        1.0        0        
C3        C        0.076923        0.87037        1.0        0        
C3        C        0.153846        0.87037        1.0        0        
C3        C        0.230769        0.87037        1.0        0        
C3        C        0.307692        0.87037        1.0        0        
C3        C        0.384615        0.87037        1.0        0        
C3        C        0.461538        0.87037        1.0        0        
C3        C        0.538462        0.87037        1.0        0        
C3        C        0.615385        0.87037        1.0        0        
C3        C        0.692308        0.87037        1.0        0        
C3        C        0.769231        0.87037        1.0        0        
C3        C        0.846154        0.87037        1.0        0        
C3        C        0.923077        0.87037        1.0        0        
C3        C        1.0        0.87037        1.0        0        
C4        C        0.038462        0.814814        1.0        0        
C4        C        0.115385        0.814814        1.0        0        
C4        C        0.192308        0.814814        1.0        0        
C4        C        0.269231        0.814814        1.0        0        
C4        C        0.346154        0.814814        1.0        0        
C4        C        0.423077        0.814814        1.0        0        
C4        C        0.5        0.814814        1.0        0        
C4        C        0.576923        0.814814        1.0        0        
C4        C        0.653846        0.814814        1.0        0        
C4        C        0.730769        0.814814        1.0        0        
C4        C        0.807692        0.814814        1.0        0        
C4        C        0.884615        0.814814        1.0        0        
C4        C        0.961538        0.814814        1.0        0        
C4        C        1.038462        0.814814        1.0        0        
C1        C        0.0        0.907408        1.0        0        
C1        C        0.076923        0.907408        1.0        0        
C1        C        0.153846        0.907408        1.0        0        
C1        C        0.230769        0.907408        1.0        0        
C1        C        0.307692        0.907408        1.0        0        
C1        C        0.384615        0.907408        1.0        0        
C1        C        0.461538        0.907408        1.0        0        
C1        C        0.538462        0.907408        1.0        0        
C1        C        0.615385        0.907408        1.0        0        
C1        C        0.692308        0.907408        1.0        0        
C1        C        0.769231        0.907408        1.0        0        
C1        C        0.846154        0.907408        1.0        0        
C1        C        0.923077        0.907408        1.0        0        
C1        C        1.0        0.907408        1.0        0        
C2        C        0.038462        0.962963        1.0        0        
C2        C        0.115385        0.962963        1.0        0        
C2        C        0.192308        0.962963        1.0        0        
C2        C        0.269231        0.962963        1.0        0        
C2        C        0.346154        0.962963        1.0        0        
C2        C        0.423077        0.962963        1.0        0        
C2        C        0.5        0.962963        1.0        0        
C2        C        0.576923        0.962963        1.0        0        
C2        C        0.653846        0.962963        1.0        0        
C2        C        0.730769        0.962963        1.0        0        
C2        C        0.807692        0.962963        1.0        0        
C2        C        0.884615        0.962963        1.0        0        
C2        C        0.961538        0.962963        1.0        0        
C2        C        1.038462        0.962963        1.0        0        
C3        C        0.0        0.9814809999999999        1.0        0        
C3        C        0.076923        0.9814809999999999        1.0        0        
C3        C        0.153846        0.9814809999999999        1.0        0        
C3        C        0.230769        0.9814809999999999        1.0        0        
C3        C        0.307692        0.9814809999999999        1.0        0        
C3        C        0.384615        0.9814809999999999        1.0        0        
C3        C        0.461538        0.9814809999999999        1.0        0        
C3        C        0.538462        0.9814809999999999        1.0        0        
C3        C        0.615385        0.9814809999999999        1.0        0        
C3        C        0.692308        0.9814809999999999        1.0        0        
C3        C        0.769231        0.9814809999999999        1.0        0        
C3        C        0.846154        0.9814809999999999        1.0        0        
C3        C        0.923077        0.9814809999999999        1.0        0        
C3        C        1.0        0.9814809999999999        1.0        0        
C4        C        0.038462        0.925925        1.0        0        
C4        C        0.115385        0.925925        1.0        0        
C4        C        0.192308        0.925925        1.0        0        
C4        C        0.269231        0.925925        1.0        0        
C4        C        0.346154        0.925925        1.0        0        
C4        C        0.423077        0.925925        1.0        0        
C4        C        0.5        0.925925        1.0        0        
C4        C        0.576923        0.925925        1.0        0        
C4        C        0.653846        0.925925        1.0        0        
C4        C        0.730769        0.925925        1.0        0        
C4        C        0.807692        0.925925        1.0        0        
C4        C        0.884615        0.925925        1.0        0        
C4        C        0.961538        0.925925        1.0        0        
C4        C        1.038462        0.925925        1.0        0        
O_OH        O        0.076923        0.018519        0.28141868512110724        -0.64        
O_OH        O        0.076923        0.314815        0.28141868512110724        -0.64        
O_OH        O        0.076923        0.574075        0.28141868512110724        -0.64        
O_OH        O        0.230769        0.018519        0.28141868512110724        -0.64        
O_OH        O        0.230769        0.314815        0.28141868512110724        -0.64        
O_OH        O        0.230769        0.574075        0.28141868512110724        -0.64        
O_OH        O        0.846154        0.018519        0.28141868512110724        -0.64        
O_OH        O        0.846154        0.314815        0.28141868512110724        -0.64        
O_OH        O        0.846154        0.574075        0.28141868512110724        -0.64        
O_OH        O        1.0        0.018519        0.28141868512110724        -0.64        
O_OH        O        1.0        0.314815        0.28141868512110724        -0.64        
O_OH        O        1.0        0.574075        0.28141868512110724        -0.64        
O_OH        O        0.076923        0.87037        0.28141868512110724        -0.64        
O_OH        O        0.230769        0.87037        0.28141868512110724        -0.64        
O_OH        O        0.846154        0.87037        0.28141868512110724        -0.64        
O_OH        O        1.0        0.87037        0.28141868512110724        -0.64        
O_OH        O        0.076923        0.018519        0.7185813148788928        -0.64        
O_OH        O        0.076923        0.314815        0.7185813148788928        -0.64        
O_OH        O        0.076923        0.574075        0.7185813148788928        -0.64        
O_OH        O        0.230769        0.018519        0.7185813148788928        -0.64        
O_OH        O        0.230769        0.314815        0.7185813148788928        -0.64        
O_OH        O        0.230769        0.574075        0.7185813148788928        -0.64        
O_OH        O        0.846154        0.018519        0.7185813148788928        -0.64        
O_OH        O        0.846154        0.314815        0.7185813148788928        -0.64        
O_OH        O        0.846154        0.574075        0.7185813148788928        -0.64        
O_OH        O        1.0        0.018519        0.7185813148788928        -0.64        
O_OH        O        1.0        0.314815        0.7185813148788928        -0.64        
O_OH        O        1.0        0.574075        0.7185813148788928        -0.64        
O_OH        O        0.076923        0.87037        0.7185813148788928        -0.64        
O_OH        O        0.230769        0.87037        0.7185813148788928        -0.64        
O_OH        O        0.846154        0.87037        0.7185813148788928        -0.64        
O_OH        O        1.0        0.87037        0.7185813148788928        -0.64        
H_OH        H        0.10486401219318763        0.021144424910250315        0.29305186851211074        0.44        
H_OH        H        0.08612166827823614        0.3369778786209638        0.29305186851211074        0.44        
H_OH        H        0.0717314841665229        0.5971252198211211        0.29305186851211074        0.44        
H_OH        H        0.23762869492414582        0.04126379250457244        0.29305186851211074        0.44        
H_OH        H        0.20305184228933018        0.31875979722338676        0.29305186851211074        0.44        
H_OH        H        0.25844007367671484        0.5782388124416372        0.29305186851211074        0.44        
H_OH        H        0.8731226453887083        0.02515530352348825        0.29305186851211074        0.44        
H_OH        H        0.8467324810807326        0.3382634866512361        0.29305186851211074        0.44        
H_OH        H        0.822995098990121        0.5873757491619457        0.29305186851211074        0.44        
H_OH        H        0.9771386843698274        0.03217323648717421        0.29305186851211074        0.44        
H_OH        H        0.982414889976943        0.3331156446197976        0.29305186851211074        0.44        
H_OH        H        0.9914092201331736        0.5964069730417879        0.29305186851211074        0.44        
H_OH        H        0.06405098072851748        0.8912215335139343        0.29305186851211074        0.44        
H_OH        H        0.236244553142438        0.8933744478577625        0.29305186851211074        0.44        
H_OH        H        0.8419429695011045        0.8935589367236239        0.29305186851211074        0.44        
H_OH        H        0.9760532319121946        0.8826618096696457        0.29305186851211074        0.44        
H_OH        H        0.06998094862824718        0.04124640094842759        0.7069481314878893        0.44        
H_OH        H        0.09166133566041312        0.334788350564205        0.7069481314878893        0.44        
H_OH        H        0.10461844815923241        0.5781244937263417        0.7069481314878893        0.44        
H_OH        H        0.2329854020976824        0.04189947320115561        0.7069481314878893        0.44        
H_OH        H        0.20920674696554917        0.3298678788228369        0.7069481314878893        0.44        
H_OH        H        0.2122053129222411        0.5916903880269012        0.7069481314878893        0.44        
H_OH        H        0.8694752520977546        0.03162089806929974        0.7069481314878893        0.44        
H_OH        H        0.8560606776551027        0.3367645319719842        0.7069481314878893        0.44        
H_OH        H        0.8586402601506572        0.595089100000828        0.7069481314878893        0.44        
H_OH        H        1.0168280748955243        0.03730833857284823        0.7069481314878893        0.44        
H_OH        H        1.0146431607798818        0.33483699570806974        0.7069481314878893        0.44        
H_OH        H        0.982480864408541        0.5924196160092071        0.7069481314878893        0.44        
H_OH        H        0.07486277208084692        0.8937604086628489        0.7069481314878893        0.44        
H_OH        H        0.25685274712756373        0.8791280331355068        0.7069481314878893        0.44        
H_OH        H        0.8598901913869978        0.8908343187528168        0.7069481314878893        0.44        
H_OH        H        0.9791041521802836        0.8860631480808377        0.7069481314878893        0.44        
