data_graphite_ortho

_audit_creation_method RASPA-1.0
_audit_creation_date 2012-2-3
_audit_author_name 'David Dubbeldam'

_cell_length_a    22.14    
_cell_length_b    38.34    
_cell_length_c    22.2    
_cell_angle_alpha 90
_cell_angle_beta  90
_cell_angle_gamma 90
_cell_volume      18844.42      

_symmetry_cell_setting          triclinic
_symmetry_space_group_name_Hall 'P 1'
_symmetry_space_group_name_H-M  'P 1'
_symmetry_Int_Tables_number     1

_symmetry_equiv_pos_as_xyz 'x,y,z'

loop_
_atom_site_label
_atom_site_type_symbol
_atom_site_fract_x
_atom_site_fract_y
_atom_site_fract_z
_atom_site_charge
C1        C        0.0        0.018519        0.0        0        
C2        C        0.055556        0.074075        0.0        0        
C3        C        0.0        0.092592        0.0        0        
C4        C        0.055556        0.037037        0.0        0        
C1        C        0.0        0.12963        0.0        0        
C2        C        0.055556        0.185185        0.0        0        
C3        C        0.0        0.203703        0.0        0        
C4        C        0.055556        0.148148        0.0        0        
C1        C        0.0        0.240741        0.0        0        
C2        C        0.055556        0.296297        0.0        0        
C3        C        0.0        0.314815        0.0        0        
C4        C        0.055556        0.259259        0.0        0        
C1        C        0.0        0.351852        0.0        0        
C2        C        0.055556        0.407408        0.0        0        
C3        C        0.0        0.425925        0.0        0        
C4        C        0.055556        0.37037        0.0        0        
C1        C        0.0        0.462963        0.0        0        
C2        C        0.055556        0.518519        0.0        0        
C3        C        0.0        0.537037        0.0        0        
C4        C        0.055556        0.481481        0.0        0        
C1        C        0.0        0.574075        0.0        0        
C2        C        0.055556        0.62963        0.0        0        
C3        C        0.0        0.648148        0.0        0        
C4        C        0.055556        0.592592        0.0        0        
C1        C        0.111111        0.018519        0.0        0        
C2        C        0.166667        0.074075        0.0        0        
C3        C        0.111111        0.092592        0.0        0        
C4        C        0.166667        0.037037        0.0        0        
C1        C        0.111111        0.12963        0.0        0        
C2        C        0.166667        0.185185        0.0        0        
C3        C        0.111111        0.203703        0.0        0        
C4        C        0.166667        0.148148        0.0        0        
C1        C        0.111111        0.240741        0.0        0        
C2        C        0.166667        0.296297        0.0        0        
C3        C        0.111111        0.314815        0.0        0        
C4        C        0.166667        0.259259        0.0        0        
C1        C        0.111111        0.351852        0.0        0        
C2        C        0.166667        0.407408        0.0        0        
C3        C        0.111111        0.425925        0.0        0        
C4        C        0.166667        0.37037        0.0        0        
C1        C        0.111111        0.462963        0.0        0        
C2        C        0.166667        0.518519        0.0        0        
C3        C        0.111111        0.537037        0.0        0        
C4        C        0.166667        0.481481        0.0        0        
C1        C        0.111111        0.574075        0.0        0        
C2        C        0.166667        0.62963        0.0        0        
C3        C        0.111111        0.648148        0.0        0        
C4        C        0.166667        0.592592        0.0        0        
C1        C        0.222222        0.018519        0.0        0        
C2        C        0.277778        0.074075        0.0        0        
C3        C        0.222222        0.092592        0.0        0        
C4        C        0.277778        0.037037        0.0        0        
C1        C        0.222222        0.12963        0.0        0        
C2        C        0.277778        0.185185        0.0        0        
C3        C        0.222222        0.203703        0.0        0        
C4        C        0.277778        0.148148        0.0        0        
C1        C        0.222222        0.240741        0.0        0        
C2        C        0.277778        0.296297        0.0        0        
C3        C        0.222222        0.314815        0.0        0        
C4        C        0.277778        0.259259        0.0        0        
C1        C        0.222222        0.351852        0.0        0        
C2        C        0.277778        0.407408        0.0        0        
C3        C        0.222222        0.425925        0.0        0        
C4        C        0.277778        0.37037        0.0        0        
C1        C        0.222222        0.462963        0.0        0        
C2        C        0.277778        0.518519        0.0        0        
C3        C        0.222222        0.537037        0.0        0        
C4        C        0.277778        0.481481        0.0        0        
C1        C        0.222222        0.574075        0.0        0        
C2        C        0.277778        0.62963        0.0        0        
C3        C        0.222222        0.648148        0.0        0        
C4        C        0.277778        0.592592        0.0        0        
C1        C        0.333333        0.018519        0.0        0        
C2        C        0.388889        0.074075        0.0        0        
C3        C        0.333333        0.092592        0.0        0        
C4        C        0.388889        0.037037        0.0        0        
C1        C        0.333333        0.12963        0.0        0        
C2        C        0.388889        0.185185        0.0        0        
C3        C        0.333333        0.203703        0.0        0        
C4        C        0.388889        0.148148        0.0        0        
C1        C        0.333333        0.240741        0.0        0        
C2        C        0.388889        0.296297        0.0        0        
C3        C        0.333333        0.314815        0.0        0        
C4        C        0.388889        0.259259        0.0        0        
C1        C        0.333333        0.351852        0.0        0        
C2        C        0.388889        0.407408        0.0        0        
C3        C        0.333333        0.425925        0.0        0        
C4        C        0.388889        0.37037        0.0        0        
C1        C        0.333333        0.462963        0.0        0        
C2        C        0.388889        0.518519        0.0        0        
C3        C        0.333333        0.537037        0.0        0        
C4        C        0.388889        0.481481        0.0        0        
C1        C        0.333333        0.574075        0.0        0        
C2        C        0.388889        0.62963        0.0        0        
C3        C        0.333333        0.648148        0.0        0        
C4        C        0.388889        0.592592        0.0        0        
C1        C        0.444444        0.018519        0.0        0        
C2        C        0.5        0.074075        0.0        0        
C3        C        0.444444        0.092592        0.0        0        
C4        C        0.5        0.037037        0.0        0        
C1        C        0.444444        0.12963        0.0        0        
C2        C        0.5        0.185185        0.0        0        
C3        C        0.444444        0.203703        0.0        0        
C4        C        0.5        0.148148        0.0        0        
C1        C        0.444444        0.240741        0.0        0        
C2        C        0.5        0.296297        0.0        0        
C3        C        0.444444        0.314815        0.0        0        
C4        C        0.5        0.259259        0.0        0        
C1        C        0.444444        0.351852        0.0        0        
C2        C        0.5        0.407408        0.0        0        
C3        C        0.444444        0.425925        0.0        0        
C4        C        0.5        0.37037        0.0        0        
C1        C        0.444444        0.462963        0.0        0        
C2        C        0.5        0.518519        0.0        0        
C3        C        0.444444        0.537037        0.0        0        
C4        C        0.5        0.481481        0.0        0        
C1        C        0.444444        0.574075        0.0        0        
C2        C        0.5        0.62963        0.0        0        
C3        C        0.444444        0.648148        0.0        0        
C4        C        0.5        0.592592        0.0        0        
C1        C        0.555556        0.018519        0.0        0        
C2        C        0.611111        0.074075        0.0        0        
C3        C        0.555556        0.092592        0.0        0        
C4        C        0.611111        0.037037        0.0        0        
C1        C        0.555556        0.12963        0.0        0        
C2        C        0.611111        0.185185        0.0        0        
C3        C        0.555556        0.203703        0.0        0        
C4        C        0.611111        0.148148        0.0        0        
C1        C        0.555556        0.240741        0.0        0        
C2        C        0.611111        0.296297        0.0        0        
C3        C        0.555556        0.314815        0.0        0        
C4        C        0.611111        0.259259        0.0        0        
C1        C        0.555556        0.351852        0.0        0        
C2        C        0.611111        0.407408        0.0        0        
C3        C        0.555556        0.425925        0.0        0        
C4        C        0.611111        0.37037        0.0        0        
C1        C        0.555556        0.462963        0.0        0        
C2        C        0.611111        0.518519        0.0        0        
C3        C        0.555556        0.537037        0.0        0        
C4        C        0.611111        0.481481        0.0        0        
C1        C        0.555556        0.574075        0.0        0        
C2        C        0.611111        0.62963        0.0        0        
C3        C        0.555556        0.648148        0.0        0        
C4        C        0.611111        0.592592        0.0        0        
C1        C        0.666667        0.018519        0.0        0        
C2        C        0.722222        0.074075        0.0        0        
C3        C        0.666667        0.092592        0.0        0        
C4        C        0.722222        0.037037        0.0        0        
C1        C        0.666667        0.12963        0.0        0        
C2        C        0.722222        0.185185        0.0        0        
C3        C        0.666667        0.203703        0.0        0        
C4        C        0.722222        0.148148        0.0        0        
C1        C        0.666667        0.240741        0.0        0        
C2        C        0.722222        0.296297        0.0        0        
C3        C        0.666667        0.314815        0.0        0        
C4        C        0.722222        0.259259        0.0        0        
C1        C        0.666667        0.351852        0.0        0        
C2        C        0.722222        0.407408        0.0        0        
C3        C        0.666667        0.425925        0.0        0        
C4        C        0.722222        0.37037        0.0        0        
C1        C        0.666667        0.462963        0.0        0        
C2        C        0.722222        0.518519        0.0        0        
C3        C        0.666667        0.537037        0.0        0        
C4        C        0.722222        0.481481        0.0        0        
C1        C        0.666667        0.574075        0.0        0        
C2        C        0.722222        0.62963        0.0        0        
C3        C        0.666667        0.648148        0.0        0        
C4        C        0.722222        0.592592        0.0        0        
C1        C        0.777778        0.018519        0.0        0        
C2        C        0.833333        0.074075        0.0        0        
C3        C        0.777778        0.092592        0.0        0        
C4        C        0.833333        0.037037        0.0        0        
C1        C        0.777778        0.12963        0.0        0        
C2        C        0.833333        0.185185        0.0        0        
C3        C        0.777778        0.203703        0.0        0        
C4        C        0.833333        0.148148        0.0        0        
C1        C        0.777778        0.240741        0.0        0        
C2        C        0.833333        0.296297        0.0        0        
C3        C        0.777778        0.314815        0.0        0        
C4        C        0.833333        0.259259        0.0        0        
C1        C        0.777778        0.351852        0.0        0        
C2        C        0.833333        0.407408        0.0        0        
C3        C        0.777778        0.425925        0.0        0        
C4        C        0.833333        0.37037        0.0        0        
C1        C        0.777778        0.462963        0.0        0        
C2        C        0.833333        0.518519        0.0        0        
C3        C        0.777778        0.537037        0.0        0        
C4        C        0.833333        0.481481        0.0        0        
C1        C        0.777778        0.574075        0.0        0        
C2        C        0.833333        0.62963        0.0        0        
C3        C        0.777778        0.648148        0.0        0        
C4        C        0.833333        0.592592        0.0        0        
C1        C        0.888889        0.018519        0.0        0        
C2        C        0.944444        0.074075        0.0        0        
C3        C        0.888889        0.092592        0.0        0        
C4        C        0.944444        0.037037        0.0        0        
C1        C        0.888889        0.12963        0.0        0        
C2        C        0.944444        0.185185        0.0        0        
C3        C        0.888889        0.203703        0.0        0        
C4        C        0.944444        0.148148        0.0        0        
C1        C        0.888889        0.240741        0.0        0        
C2        C        0.944444        0.296297        0.0        0        
C3        C        0.888889        0.314815        0.0        0        
C4        C        0.944444        0.259259        0.0        0        
C1        C        0.888889        0.351852        0.0        0        
C2        C        0.944444        0.407408        0.0        0        
C3        C        0.888889        0.425925        0.0        0        
C4        C        0.944444        0.37037        0.0        0        
C1        C        0.888889        0.462963        0.0        0        
C2        C        0.944444        0.518519        0.0        0        
C3        C        0.888889        0.537037        0.0        0        
C4        C        0.944444        0.481481        0.0        0        
C1        C        0.888889        0.574075        0.0        0        
C2        C        0.944444        0.62963        0.0        0        
C3        C        0.888889        0.648148        0.0        0        
C4        C        0.944444        0.592592        0.0        0        
C1        C        0.0        0.685186        0.0        0        
C1        C        0.111111        0.685186        0.0        0        
C1        C        0.222222        0.685186        0.0        0        
C1        C        0.333333        0.685186        0.0        0        
C1        C        0.444444        0.685186        0.0        0        
C1        C        0.555556        0.685186        0.0        0        
C1        C        0.666667        0.685186        0.0        0        
C1        C        0.777778        0.685186        0.0        0        
C1        C        0.888889        0.685186        0.0        0        
C2        C        0.055556        0.740741        0.0        0        
C2        C        0.166667        0.740741        0.0        0        
C2        C        0.277778        0.740741        0.0        0        
C2        C        0.388889        0.740741        0.0        0        
C2        C        0.5        0.740741        0.0        0        
C2        C        0.611111        0.740741        0.0        0        
C2        C        0.722222        0.740741        0.0        0        
C2        C        0.833333        0.740741        0.0        0        
C2        C        0.944444        0.740741        0.0        0        
C3        C        0.0        0.759259        0.0        0        
C3        C        0.111111        0.759259        0.0        0        
C3        C        0.222222        0.759259        0.0        0        
C3        C        0.333333        0.759259        0.0        0        
C3        C        0.444444        0.759259        0.0        0        
C3        C        0.555556        0.759259        0.0        0        
C3        C        0.666667        0.759259        0.0        0        
C3        C        0.777778        0.759259        0.0        0        
C3        C        0.888889        0.759259        0.0        0        
C4        C        0.055556        0.703703        0.0        0        
C4        C        0.166667        0.703703        0.0        0        
C4        C        0.277778        0.703703        0.0        0        
C4        C        0.388889        0.703703        0.0        0        
C4        C        0.5        0.703703        0.0        0        
C4        C        0.611111        0.703703        0.0        0        
C4        C        0.722222        0.703703        0.0        0        
C4        C        0.833333        0.703703        0.0        0        
C4        C        0.944444        0.703703        0.0        0        
C1        C        0.0        0.796297        0.0        0        
C1        C        0.111111        0.796297        0.0        0        
C1        C        0.222222        0.796297        0.0        0        
C1        C        0.333333        0.796297        0.0        0        
C1        C        0.444444        0.796297        0.0        0        
C1        C        0.555556        0.796297        0.0        0        
C1        C        0.666667        0.796297        0.0        0        
C1        C        0.777778        0.796297        0.0        0        
C1        C        0.888889        0.796297        0.0        0        
C2        C        0.055556        0.851852        0.0        0        
C2        C        0.166667        0.851852        0.0        0        
C2        C        0.277778        0.851852        0.0        0        
C2        C        0.388889        0.851852        0.0        0        
C2        C        0.5        0.851852        0.0        0        
C2        C        0.611111        0.851852        0.0        0        
C2        C        0.722222        0.851852        0.0        0        
C2        C        0.833333        0.851852        0.0        0        
C2        C        0.944444        0.851852        0.0        0        
C3        C        0.0        0.87037        0.0        0        
C3        C        0.111111        0.87037        0.0        0        
C3        C        0.222222        0.87037        0.0        0        
C3        C        0.333333        0.87037        0.0        0        
C3        C        0.444444        0.87037        0.0        0        
C3        C        0.555556        0.87037        0.0        0        
C3        C        0.666667        0.87037        0.0        0        
C3        C        0.777778        0.87037        0.0        0        
C3        C        0.888889        0.87037        0.0        0        
C4        C        0.055556        0.814814        0.0        0        
C4        C        0.166667        0.814814        0.0        0        
C4        C        0.277778        0.814814        0.0        0        
C4        C        0.388889        0.814814        0.0        0        
C4        C        0.5        0.814814        0.0        0        
C4        C        0.611111        0.814814        0.0        0        
C4        C        0.722222        0.814814        0.0        0        
C4        C        0.833333        0.814814        0.0        0        
C4        C        0.944444        0.814814        0.0        0        
C1        C        0.0        0.907408        0.0        0        
C1        C        0.111111        0.907408        0.0        0        
C1        C        0.222222        0.907408        0.0        0        
C1        C        0.333333        0.907408        0.0        0        
C1        C        0.444444        0.907408        0.0        0        
C1        C        0.555556        0.907408        0.0        0        
C1        C        0.666667        0.907408        0.0        0        
C1        C        0.777778        0.907408        0.0        0        
C1        C        0.888889        0.907408        0.0        0        
C2        C        0.055556        0.962963        0.0        0        
C2        C        0.166667        0.962963        0.0        0        
C2        C        0.277778        0.962963        0.0        0        
C2        C        0.388889        0.962963        0.0        0        
C2        C        0.5        0.962963        0.0        0        
C2        C        0.611111        0.962963        0.0        0        
C2        C        0.722222        0.962963        0.0        0        
C2        C        0.833333        0.962963        0.0        0        
C2        C        0.944444        0.962963        0.0        0        
C3        C        0.0        0.981481        0.0        0        
C3        C        0.111111        0.981481        0.0        0        
C3        C        0.222222        0.981481        0.0        0        
C3        C        0.333333        0.981481        0.0        0        
C3        C        0.444444        0.981481        0.0        0        
C3        C        0.555556        0.981481        0.0        0        
C3        C        0.666667        0.981481        0.0        0        
C3        C        0.777778        0.981481        0.0        0        
C3        C        0.888889        0.981481        0.0        0        
C4        C        0.055556        0.925925        0.0        0        
C4        C        0.166667        0.925925        0.0        0        
C4        C        0.277778        0.925925        0.0        0        
C4        C        0.388889        0.925925        0.0        0        
C4        C        0.5        0.925925        0.0        0        
C4        C        0.611111        0.925925        0.0        0        
C4        C        0.722222        0.925925        0.0        0        
C4        C        0.833333        0.925925        0.0        0        
C4        C        0.944444        0.925925        0.0        0        
C1        C        0.0        0.018519        0.150901        0        
C2        C        0.055556        0.074075        0.150901        0        
C3        C        0.0        0.092592        0.150901        0        
C4        C        0.055556        0.037037        0.150901        0        
C1        C        0.0        0.12963        0.150901        0        
C2        C        0.055556        0.185185        0.150901        0        
C3        C        0.0        0.203703        0.150901        0        
C4        C        0.055556        0.148148        0.150901        0        
C1        C        0.0        0.240741        0.150901        0        
C2        C        0.055556        0.296297        0.150901        0        
C3        C        0.0        0.314815        0.150901        0        
C4        C        0.055556        0.259259        0.150901        0        
C1        C        0.0        0.351852        0.150901        0        
C2        C        0.055556        0.407408        0.150901        0        
C3        C        0.0        0.425925        0.150901        0        
C4        C        0.055556        0.37037        0.150901        0        
C1        C        0.0        0.462963        0.150901        0        
C2        C        0.055556        0.518519        0.150901        0        
C3        C        0.0        0.537037        0.150901        0        
C4        C        0.055556        0.481481        0.150901        0        
C1        C        0.0        0.574075        0.150901        0        
C2        C        0.055556        0.62963        0.150901        0        
C3        C        0.0        0.648148        0.150901        0        
C4        C        0.055556        0.592592        0.150901        0        
C1        C        0.111111        0.018519        0.150901        0        
C2        C        0.166667        0.074075        0.150901        0        
C3        C        0.111111        0.092592        0.150901        0        
C4        C        0.166667        0.037037        0.150901        0        
C1        C        0.111111        0.12963        0.150901        0        
C2        C        0.166667        0.185185        0.150901        0        
C3        C        0.111111        0.203703        0.150901        0        
C4        C        0.166667        0.148148        0.150901        0        
C1        C        0.111111        0.240741        0.150901        0        
C2        C        0.166667        0.296297        0.150901        0        
C3        C        0.111111        0.314815        0.150901        0        
C4        C        0.166667        0.259259        0.150901        0        
C1        C        0.111111        0.351852        0.150901        0        
C2        C        0.166667        0.407408        0.150901        0        
C3        C        0.111111        0.425925        0.150901        0        
C4        C        0.166667        0.37037        0.150901        0        
C1        C        0.111111        0.462963        0.150901        0        
C2        C        0.166667        0.518519        0.150901        0        
C3        C        0.111111        0.537037        0.150901        0        
C4        C        0.166667        0.481481        0.150901        0        
C1        C        0.111111        0.574075        0.150901        0        
C2        C        0.166667        0.62963        0.150901        0        
C3        C        0.111111        0.648148        0.150901        0        
C4        C        0.166667        0.592592        0.150901        0        
C1        C        0.222222        0.018519        0.150901        0        
C2        C        0.277778        0.074075        0.150901        0        
C3        C        0.222222        0.092592        0.150901        0        
C4        C        0.277778        0.037037        0.150901        0        
C1        C        0.222222        0.12963        0.150901        0        
C2        C        0.277778        0.185185        0.150901        0        
C3        C        0.222222        0.203703        0.150901        0        
C4        C        0.277778        0.148148        0.150901        0        
C1        C        0.222222        0.240741        0.150901        0        
C2        C        0.277778        0.296297        0.150901        0        
C3        C        0.222222        0.314815        0.150901        0        
C4        C        0.277778        0.259259        0.150901        0        
C1        C        0.222222        0.351852        0.150901        0        
C2        C        0.277778        0.407408        0.150901        0        
C3        C        0.222222        0.425925        0.150901        0        
C4        C        0.277778        0.37037        0.150901        0        
C1        C        0.222222        0.462963        0.150901        0        
C2        C        0.277778        0.518519        0.150901        0        
C3        C        0.222222        0.537037        0.150901        0        
C4        C        0.277778        0.481481        0.150901        0        
C1        C        0.222222        0.574075        0.150901        0        
C2        C        0.277778        0.62963        0.150901        0        
C3        C        0.222222        0.648148        0.150901        0        
C4        C        0.277778        0.592592        0.150901        0        
C1        C        0.333333        0.018519        0.150901        0        
C2        C        0.388889        0.074075        0.150901        0        
C3        C        0.333333        0.092592        0.150901        0        
C4        C        0.388889        0.037037        0.150901        0        
C1        C        0.333333        0.12963        0.150901        0        
C2        C        0.388889        0.185185        0.150901        0        
C3        C        0.333333        0.203703        0.150901        0        
C4        C        0.388889        0.148148        0.150901        0        
C1        C        0.333333        0.240741        0.150901        0        
C2        C        0.388889        0.296297        0.150901        0        
C3        C        0.333333        0.314815        0.150901        0        
C4        C        0.388889        0.259259        0.150901        0        
C1        C        0.333333        0.351852        0.150901        0        
C2        C        0.388889        0.407408        0.150901        0        
C3        C        0.333333        0.425925        0.150901        0        
C4        C        0.388889        0.37037        0.150901        0        
C1        C        0.333333        0.462963        0.150901        0        
C2        C        0.388889        0.518519        0.150901        0        
C3        C        0.333333        0.537037        0.150901        0        
C4        C        0.388889        0.481481        0.150901        0        
C1        C        0.333333        0.574075        0.150901        0        
C2        C        0.388889        0.62963        0.150901        0        
C3        C        0.333333        0.648148        0.150901        0        
C4        C        0.388889        0.592592        0.150901        0        
C1        C        0.444444        0.018519        0.150901        0        
C2        C        0.5        0.074075        0.150901        0        
C3        C        0.444444        0.092592        0.150901        0        
C4        C        0.5        0.037037        0.150901        0        
C1        C        0.444444        0.12963        0.150901        0        
C2        C        0.5        0.185185        0.150901        0        
C3        C        0.444444        0.203703        0.150901        0        
C4        C        0.5        0.148148        0.150901        0        
C1        C        0.444444        0.240741        0.150901        0        
C2        C        0.5        0.296297        0.150901        0        
C3        C        0.444444        0.314815        0.150901        0        
C4        C        0.5        0.259259        0.150901        0        
C1        C        0.444444        0.351852        0.150901        0        
C2        C        0.5        0.407408        0.150901        0        
C3        C        0.444444        0.425925        0.150901        0        
C4        C        0.5        0.37037        0.150901        0        
C1        C        0.444444        0.462963        0.150901        0        
C2        C        0.5        0.518519        0.150901        0        
C3        C        0.444444        0.537037        0.150901        0        
C4        C        0.5        0.481481        0.150901        0        
C1        C        0.444444        0.574075        0.150901        0        
C2        C        0.5        0.62963        0.150901        0        
C3        C        0.444444        0.648148        0.150901        0        
C4        C        0.5        0.592592        0.150901        0        
C1        C        0.555556        0.018519        0.150901        0        
C2        C        0.611111        0.074075        0.150901        0        
C3        C        0.555556        0.092592        0.150901        0        
C4        C        0.611111        0.037037        0.150901        0        
C1        C        0.555556        0.12963        0.150901        0        
C2        C        0.611111        0.185185        0.150901        0        
C3        C        0.555556        0.203703        0.150901        0        
C4        C        0.611111        0.148148        0.150901        0        
C1        C        0.555556        0.240741        0.150901        0        
C2        C        0.611111        0.296297        0.150901        0        
C3        C        0.555556        0.314815        0.150901        0        
C4        C        0.611111        0.259259        0.150901        0        
C1        C        0.555556        0.351852        0.150901        0        
C2        C        0.611111        0.407408        0.150901        0        
C3        C        0.555556        0.425925        0.150901        0        
C4        C        0.611111        0.37037        0.150901        0        
C1        C        0.555556        0.462963        0.150901        0        
C2        C        0.611111        0.518519        0.150901        0        
C3        C        0.555556        0.537037        0.150901        0        
C4        C        0.611111        0.481481        0.150901        0        
C1        C        0.555556        0.574075        0.150901        0        
C2        C        0.611111        0.62963        0.150901        0        
C3        C        0.555556        0.648148        0.150901        0        
C4        C        0.611111        0.592592        0.150901        0        
C1        C        0.666667        0.018519        0.150901        0        
C2        C        0.722222        0.074075        0.150901        0        
C3        C        0.666667        0.092592        0.150901        0        
C4        C        0.722222        0.037037        0.150901        0        
C1        C        0.666667        0.12963        0.150901        0        
C2        C        0.722222        0.185185        0.150901        0        
C3        C        0.666667        0.203703        0.150901        0        
C4        C        0.722222        0.148148        0.150901        0        
C1        C        0.666667        0.240741        0.150901        0        
C2        C        0.722222        0.296297        0.150901        0        
C3        C        0.666667        0.314815        0.150901        0        
C4        C        0.722222        0.259259        0.150901        0        
C1        C        0.666667        0.351852        0.150901        0        
C2        C        0.722222        0.407408        0.150901        0        
C3        C        0.666667        0.425925        0.150901        0        
C4        C        0.722222        0.37037        0.150901        0        
C1        C        0.666667        0.462963        0.150901        0        
C2        C        0.722222        0.518519        0.150901        0        
C3        C        0.666667        0.537037        0.150901        0        
C4        C        0.722222        0.481481        0.150901        0        
C1        C        0.666667        0.574075        0.150901        0        
C2        C        0.722222        0.62963        0.150901        0        
C3        C        0.666667        0.648148        0.150901        0        
C4        C        0.722222        0.592592        0.150901        0        
C1        C        0.777778        0.018519        0.150901        0        
C2        C        0.833333        0.074075        0.150901        0        
C3        C        0.777778        0.092592        0.150901        0        
C4        C        0.833333        0.037037        0.150901        0        
C1        C        0.777778        0.12963        0.150901        0        
C2        C        0.833333        0.185185        0.150901        0        
C3        C        0.777778        0.203703        0.150901        0        
C4        C        0.833333        0.148148        0.150901        0        
C1        C        0.777778        0.240741        0.150901        0        
C2        C        0.833333        0.296297        0.150901        0        
C3        C        0.777778        0.314815        0.150901        0        
C4        C        0.833333        0.259259        0.150901        0        
C1        C        0.777778        0.351852        0.150901        0        
C2        C        0.833333        0.407408        0.150901        0        
C3        C        0.777778        0.425925        0.150901        0        
C4        C        0.833333        0.37037        0.150901        0        
C1        C        0.777778        0.462963        0.150901        0        
C2        C        0.833333        0.518519        0.150901        0        
C3        C        0.777778        0.537037        0.150901        0        
C4        C        0.833333        0.481481        0.150901        0        
C1        C        0.777778        0.574075        0.150901        0        
C2        C        0.833333        0.62963        0.150901        0        
C3        C        0.777778        0.648148        0.150901        0        
C4        C        0.833333        0.592592        0.150901        0        
C1        C        0.888889        0.018519        0.150901        0        
C2        C        0.944444        0.074075        0.150901        0        
C3        C        0.888889        0.092592        0.150901        0        
C4        C        0.944444        0.037037        0.150901        0        
C1        C        0.888889        0.12963        0.150901        0        
C2        C        0.944444        0.185185        0.150901        0        
C3        C        0.888889        0.203703        0.150901        0        
C4        C        0.944444        0.148148        0.150901        0        
C1        C        0.888889        0.240741        0.150901        0        
C2        C        0.944444        0.296297        0.150901        0        
C3        C        0.888889        0.314815        0.150901        0        
C4        C        0.944444        0.259259        0.150901        0        
C1        C        0.888889        0.351852        0.150901        0        
C2        C        0.944444        0.407408        0.150901        0        
C3        C        0.888889        0.425925        0.150901        0        
C4        C        0.944444        0.37037        0.150901        0        
C1        C        0.888889        0.462963        0.150901        0        
C2        C        0.944444        0.518519        0.150901        0        
C3        C        0.888889        0.537037        0.150901        0        
C4        C        0.944444        0.481481        0.150901        0        
C1        C        0.888889        0.574075        0.150901        0        
C2        C        0.944444        0.62963        0.150901        0        
C3        C        0.888889        0.648148        0.150901        0        
C4        C        0.944444        0.592592        0.150901        0        
C1        C        0.0        0.685186        0.150901        0        
C1        C        0.111111        0.685186        0.150901        0        
C1        C        0.222222        0.685186        0.150901        0        
C1        C        0.333333        0.685186        0.150901        0        
C1        C        0.444444        0.685186        0.150901        0        
C1        C        0.555556        0.685186        0.150901        0        
C1        C        0.666667        0.685186        0.150901        0        
C1        C        0.777778        0.685186        0.150901        0        
C1        C        0.888889        0.685186        0.150901        0        
C2        C        0.055556        0.740741        0.150901        0        
C2        C        0.166667        0.740741        0.150901        0        
C2        C        0.277778        0.740741        0.150901        0        
C2        C        0.388889        0.740741        0.150901        0        
C2        C        0.5        0.740741        0.150901        0        
C2        C        0.611111        0.740741        0.150901        0        
C2        C        0.722222        0.740741        0.150901        0        
C2        C        0.833333        0.740741        0.150901        0        
C2        C        0.944444        0.740741        0.150901        0        
C3        C        0.0        0.759259        0.150901        0        
C3        C        0.111111        0.759259        0.150901        0        
C3        C        0.222222        0.759259        0.150901        0        
C3        C        0.333333        0.759259        0.150901        0        
C3        C        0.444444        0.759259        0.150901        0        
C3        C        0.555556        0.759259        0.150901        0        
C3        C        0.666667        0.759259        0.150901        0        
C3        C        0.777778        0.759259        0.150901        0        
C3        C        0.888889        0.759259        0.150901        0        
C4        C        0.055556        0.703703        0.150901        0        
C4        C        0.166667        0.703703        0.150901        0        
C4        C        0.277778        0.703703        0.150901        0        
C4        C        0.388889        0.703703        0.150901        0        
C4        C        0.5        0.703703        0.150901        0        
C4        C        0.611111        0.703703        0.150901        0        
C4        C        0.722222        0.703703        0.150901        0        
C4        C        0.833333        0.703703        0.150901        0        
C4        C        0.944444        0.703703        0.150901        0        
C1        C        0.0        0.796297        0.150901        0        
C1        C        0.111111        0.796297        0.150901        0        
C1        C        0.222222        0.796297        0.150901        0        
C1        C        0.333333        0.796297        0.150901        0        
C1        C        0.444444        0.796297        0.150901        0        
C1        C        0.555556        0.796297        0.150901        0        
C1        C        0.666667        0.796297        0.150901        0        
C1        C        0.777778        0.796297        0.150901        0        
C1        C        0.888889        0.796297        0.150901        0        
C2        C        0.055556        0.851852        0.150901        0        
C2        C        0.166667        0.851852        0.150901        0        
C2        C        0.277778        0.851852        0.150901        0        
C2        C        0.388889        0.851852        0.150901        0        
C2        C        0.5        0.851852        0.150901        0        
C2        C        0.611111        0.851852        0.150901        0        
C2        C        0.722222        0.851852        0.150901        0        
C2        C        0.833333        0.851852        0.150901        0        
C2        C        0.944444        0.851852        0.150901        0        
C3        C        0.0        0.87037        0.150901        0        
C3        C        0.111111        0.87037        0.150901        0        
C3        C        0.222222        0.87037        0.150901        0        
C3        C        0.333333        0.87037        0.150901        0        
C3        C        0.444444        0.87037        0.150901        0        
C3        C        0.555556        0.87037        0.150901        0        
C3        C        0.666667        0.87037        0.150901        0        
C3        C        0.777778        0.87037        0.150901        0        
C3        C        0.888889        0.87037        0.150901        0        
C4        C        0.055556        0.814814        0.150901        0        
C4        C        0.166667        0.814814        0.150901        0        
C4        C        0.277778        0.814814        0.150901        0        
C4        C        0.388889        0.814814        0.150901        0        
C4        C        0.5        0.814814        0.150901        0        
C4        C        0.611111        0.814814        0.150901        0        
C4        C        0.722222        0.814814        0.150901        0        
C4        C        0.833333        0.814814        0.150901        0        
C4        C        0.944444        0.814814        0.150901        0        
C1        C        0.0        0.907408        0.150901        0        
C1        C        0.111111        0.907408        0.150901        0        
C1        C        0.222222        0.907408        0.150901        0        
C1        C        0.333333        0.907408        0.150901        0        
C1        C        0.444444        0.907408        0.150901        0        
C1        C        0.555556        0.907408        0.150901        0        
C1        C        0.666667        0.907408        0.150901        0        
C1        C        0.777778        0.907408        0.150901        0        
C1        C        0.888889        0.907408        0.150901        0        
C2        C        0.055556        0.962963        0.150901        0        
C2        C        0.166667        0.962963        0.150901        0        
C2        C        0.277778        0.962963        0.150901        0        
C2        C        0.388889        0.962963        0.150901        0        
C2        C        0.5        0.962963        0.150901        0        
C2        C        0.611111        0.962963        0.150901        0        
C2        C        0.722222        0.962963        0.150901        0        
C2        C        0.833333        0.962963        0.150901        0        
C2        C        0.944444        0.962963        0.150901        0        
C3        C        0.0        0.981481        0.150901        0        
C3        C        0.111111        0.981481        0.150901        0        
C3        C        0.222222        0.981481        0.150901        0        
C3        C        0.333333        0.981481        0.150901        0        
C3        C        0.444444        0.981481        0.150901        0        
C3        C        0.555556        0.981481        0.150901        0        
C3        C        0.666667        0.981481        0.150901        0        
C3        C        0.777778        0.981481        0.150901        0        
C3        C        0.888889        0.981481        0.150901        0        
C4        C        0.055556        0.925925        0.150901        0        
C4        C        0.166667        0.925925        0.150901        0        
C4        C        0.277778        0.925925        0.150901        0        
C4        C        0.388889        0.925925        0.150901        0        
C4        C        0.5        0.925925        0.150901        0        
C4        C        0.611111        0.925925        0.150901        0        
C4        C        0.722222        0.925925        0.150901        0        
C4        C        0.833333        0.925925        0.150901        0        
C4        C        0.944444        0.925925        0.150901        0        
C1        C        0.0        0.018519        0.301802        0        
C2        C        0.055556        0.074075        0.301802        0        
C3        C        0.0        0.092592        0.301802        0        
C4        C        0.055556        0.037037        0.301802        0        
C1        C        0.0        0.12963        0.301802        0        
C2        C        0.055556        0.185185        0.301802        0        
C3        C        0.0        0.203703        0.301802        0        
C4        C        0.055556        0.148148        0.301802        0        
C1        C        0.0        0.240741        0.301802        0        
C2        C        0.055556        0.296297        0.301802        0        
C3        C        0.0        0.314815        0.301802        0        
C4        C        0.055556        0.259259        0.301802        0        
C1        C        0.0        0.351852        0.301802        0        
C2        C        0.055556        0.407408        0.301802        0        
C3        C        0.0        0.425925        0.301802        0        
C4        C        0.055556        0.37037        0.301802        0        
C1        C        0.0        0.462963        0.301802        0        
C2        C        0.055556        0.518519        0.301802        0        
C3        C        0.0        0.537037        0.301802        0        
C4        C        0.055556        0.481481        0.301802        0        
C1        C        0.0        0.574075        0.301802        0        
C2        C        0.055556        0.62963        0.301802        0        
C3        C        0.0        0.648148        0.301802        0        
C4        C        0.055556        0.592592        0.301802        0        
C1        C        0.111111        0.018519        0.301802        0        
C2        C        0.166667        0.074075        0.301802        0        
C3        C        0.111111        0.092592        0.301802        0        
C4        C        0.166667        0.037037        0.301802        0        
C1        C        0.111111        0.12963        0.301802        0        
C2        C        0.166667        0.185185        0.301802        0        
C3        C        0.111111        0.203703        0.301802        0        
C4        C        0.166667        0.148148        0.301802        0        
C1        C        0.111111        0.240741        0.301802        0        
C2        C        0.166667        0.296297        0.301802        0        
C3        C        0.111111        0.314815        0.301802        0        
C4        C        0.166667        0.259259        0.301802        0        
C1        C        0.111111        0.351852        0.301802        0        
C2        C        0.166667        0.407408        0.301802        0        
C3        C        0.111111        0.425925        0.301802        0        
C4        C        0.166667        0.37037        0.301802        0        
C1        C        0.111111        0.462963        0.301802        0        
C2        C        0.166667        0.518519        0.301802        0        
C3        C        0.111111        0.537037        0.301802        0        
C4        C        0.166667        0.481481        0.301802        0        
C1        C        0.111111        0.574075        0.301802        0        
C2        C        0.166667        0.62963        0.301802        0        
C3        C        0.111111        0.648148        0.301802        0        
C4        C        0.166667        0.592592        0.301802        0        
C1        C        0.222222        0.018519        0.301802        0        
C2        C        0.277778        0.074075        0.301802        0        
C3        C        0.222222        0.092592        0.301802        0        
C4        C        0.277778        0.037037        0.301802        0        
C1        C        0.222222        0.12963        0.301802        0        
C2        C        0.277778        0.185185        0.301802        0        
C3        C        0.222222        0.203703        0.301802        0        
C4        C        0.277778        0.148148        0.301802        0        
C1        C        0.222222        0.240741        0.301802        0        
C2        C        0.277778        0.296297        0.301802        0        
C3        C        0.222222        0.314815        0.301802        0        
C4        C        0.277778        0.259259        0.301802        0        
C1        C        0.222222        0.351852        0.301802        0        
C2        C        0.277778        0.407408        0.301802        0        
C3        C        0.222222        0.425925        0.301802        0        
C4        C        0.277778        0.37037        0.301802        0        
C1        C        0.222222        0.462963        0.301802        0        
C2        C        0.277778        0.518519        0.301802        0        
C3        C        0.222222        0.537037        0.301802        0        
C4        C        0.277778        0.481481        0.301802        0        
C1        C        0.222222        0.574075        0.301802        0        
C2        C        0.277778        0.62963        0.301802        0        
C3        C        0.222222        0.648148        0.301802        0        
C4        C        0.277778        0.592592        0.301802        0        
C1        C        0.333333        0.018519        0.301802        0        
C2        C        0.388889        0.074075        0.301802        0        
C3        C        0.333333        0.092592        0.301802        0        
C4        C        0.388889        0.037037        0.301802        0        
C1        C        0.333333        0.12963        0.301802        0        
C2        C        0.388889        0.185185        0.301802        0        
C3        C        0.333333        0.203703        0.301802        0        
C4        C        0.388889        0.148148        0.301802        0        
C1        C        0.333333        0.240741        0.301802        0        
C2        C        0.388889        0.296297        0.301802        0        
C3        C        0.333333        0.314815        0.301802        0        
C4        C        0.388889        0.259259        0.301802        0        
C1        C        0.333333        0.351852        0.301802        0        
C2        C        0.388889        0.407408        0.301802        0        
C3        C        0.333333        0.425925        0.301802        0        
C4        C        0.388889        0.37037        0.301802        0        
C1        C        0.333333        0.462963        0.301802        0        
C2        C        0.388889        0.518519        0.301802        0        
C3        C        0.333333        0.537037        0.301802        0        
C4        C        0.388889        0.481481        0.301802        0        
C1        C        0.333333        0.574075        0.301802        0        
C2        C        0.388889        0.62963        0.301802        0        
C3        C        0.333333        0.648148        0.301802        0        
C4        C        0.388889        0.592592        0.301802        0        
C1        C        0.444444        0.018519        0.301802        0        
C2        C        0.5        0.074075        0.301802        0        
C3        C        0.444444        0.092592        0.301802        0        
C4        C        0.5        0.037037        0.301802        0        
C1        C        0.444444        0.12963        0.301802        0        
C2        C        0.5        0.185185        0.301802        0        
C3        C        0.444444        0.203703        0.301802        0        
C4        C        0.5        0.148148        0.301802        0        
C1        C        0.444444        0.240741        0.301802        0        
C2        C        0.5        0.296297        0.301802        0        
C3        C        0.444444        0.314815        0.301802        0        
C4        C        0.5        0.259259        0.301802        0        
C1        C        0.444444        0.351852        0.301802        0        
C2        C        0.5        0.407408        0.301802        0        
C3        C        0.444444        0.425925        0.301802        0        
C4        C        0.5        0.37037        0.301802        0        
C1        C        0.444444        0.462963        0.301802        0        
C2        C        0.5        0.518519        0.301802        0        
C3        C        0.444444        0.537037        0.301802        0        
C4        C        0.5        0.481481        0.301802        0        
C1        C        0.444444        0.574075        0.301802        0        
C2        C        0.5        0.62963        0.301802        0        
C3        C        0.444444        0.648148        0.301802        0        
C4        C        0.5        0.592592        0.301802        0        
C1        C        0.555556        0.018519        0.301802        0        
C2        C        0.611111        0.074075        0.301802        0        
C3        C        0.555556        0.092592        0.301802        0        
C4        C        0.611111        0.037037        0.301802        0        
C1        C        0.555556        0.12963        0.301802        0        
C2        C        0.611111        0.185185        0.301802        0        
C3        C        0.555556        0.203703        0.301802        0        
C4        C        0.611111        0.148148        0.301802        0        
C1        C        0.555556        0.240741        0.301802        0        
C2        C        0.611111        0.296297        0.301802        0        
C3        C        0.555556        0.314815        0.301802        0        
C4        C        0.611111        0.259259        0.301802        0        
C1        C        0.555556        0.351852        0.301802        0        
C2        C        0.611111        0.407408        0.301802        0        
C3        C        0.555556        0.425925        0.301802        0        
C4        C        0.611111        0.37037        0.301802        0        
C1        C        0.555556        0.462963        0.301802        0        
C2        C        0.611111        0.518519        0.301802        0        
C3        C        0.555556        0.537037        0.301802        0        
C4        C        0.611111        0.481481        0.301802        0        
C1        C        0.555556        0.574075        0.301802        0        
C2        C        0.611111        0.62963        0.301802        0        
C3        C        0.555556        0.648148        0.301802        0        
C4        C        0.611111        0.592592        0.301802        0        
C1        C        0.666667        0.018519        0.301802        0        
C2        C        0.722222        0.074075        0.301802        0        
C3        C        0.666667        0.092592        0.301802        0        
C4        C        0.722222        0.037037        0.301802        0        
C1        C        0.666667        0.12963        0.301802        0        
C2        C        0.722222        0.185185        0.301802        0        
C3        C        0.666667        0.203703        0.301802        0        
C4        C        0.722222        0.148148        0.301802        0        
C1        C        0.666667        0.240741        0.301802        0        
C2        C        0.722222        0.296297        0.301802        0        
C3        C        0.666667        0.314815        0.301802        0        
C4        C        0.722222        0.259259        0.301802        0        
C1        C        0.666667        0.351852        0.301802        0        
C2        C        0.722222        0.407408        0.301802        0        
C3        C        0.666667        0.425925        0.301802        0        
C4        C        0.722222        0.37037        0.301802        0        
C1        C        0.666667        0.462963        0.301802        0        
C2        C        0.722222        0.518519        0.301802        0        
C3        C        0.666667        0.537037        0.301802        0        
C4        C        0.722222        0.481481        0.301802        0        
C1        C        0.666667        0.574075        0.301802        0        
C2        C        0.722222        0.62963        0.301802        0        
C3        C        0.666667        0.648148        0.301802        0        
C4        C        0.722222        0.592592        0.301802        0        
C1        C        0.777778        0.018519        0.301802        0        
C2        C        0.833333        0.074075        0.301802        0        
C3        C        0.777778        0.092592        0.301802        0        
C4        C        0.833333        0.037037        0.301802        0        
C1        C        0.777778        0.12963        0.301802        0        
C2        C        0.833333        0.185185        0.301802        0        
C3        C        0.777778        0.203703        0.301802        0        
C4        C        0.833333        0.148148        0.301802        0        
C1        C        0.777778        0.240741        0.301802        0        
C2        C        0.833333        0.296297        0.301802        0        
C3        C        0.777778        0.314815        0.301802        0        
C4        C        0.833333        0.259259        0.301802        0        
C1        C        0.777778        0.351852        0.301802        0        
C2        C        0.833333        0.407408        0.301802        0        
C3        C        0.777778        0.425925        0.301802        0        
C4        C        0.833333        0.37037        0.301802        0        
C1        C        0.777778        0.462963        0.301802        0        
C2        C        0.833333        0.518519        0.301802        0        
C3        C        0.777778        0.537037        0.301802        0        
C4        C        0.833333        0.481481        0.301802        0        
C1        C        0.777778        0.574075        0.301802        0        
C2        C        0.833333        0.62963        0.301802        0        
C3        C        0.777778        0.648148        0.301802        0        
C4        C        0.833333        0.592592        0.301802        0        
C1        C        0.888889        0.018519        0.301802        0        
C2        C        0.944444        0.074075        0.301802        0        
C3        C        0.888889        0.092592        0.301802        0        
C4        C        0.944444        0.037037        0.301802        0        
C1        C        0.888889        0.12963        0.301802        0        
C2        C        0.944444        0.185185        0.301802        0        
C3        C        0.888889        0.203703        0.301802        0        
C4        C        0.944444        0.148148        0.301802        0        
C1        C        0.888889        0.240741        0.301802        0        
C2        C        0.944444        0.296297        0.301802        0        
C3        C        0.888889        0.314815        0.301802        0        
C4        C        0.944444        0.259259        0.301802        0        
C1        C        0.888889        0.351852        0.301802        0        
C2        C        0.944444        0.407408        0.301802        0        
C3        C        0.888889        0.425925        0.301802        0        
C4        C        0.944444        0.37037        0.301802        0        
C1        C        0.888889        0.462963        0.301802        0        
C2        C        0.944444        0.518519        0.301802        0        
C3        C        0.888889        0.537037        0.301802        0        
C4        C        0.944444        0.481481        0.301802        0        
C1        C        0.888889        0.574075        0.301802        0        
C2        C        0.944444        0.62963        0.301802        0        
C3        C        0.888889        0.648148        0.301802        0        
C4        C        0.944444        0.592592        0.301802        0        
C1        C        0.0        0.685186        0.301802        0        
C1        C        0.111111        0.685186        0.301802        0        
C1        C        0.222222        0.685186        0.301802        0        
C1        C        0.333333        0.685186        0.301802        0        
C1        C        0.444444        0.685186        0.301802        0        
C1        C        0.555556        0.685186        0.301802        0        
C1        C        0.666667        0.685186        0.301802        0        
C1        C        0.777778        0.685186        0.301802        0        
C1        C        0.888889        0.685186        0.301802        0        
C2        C        0.055556        0.740741        0.301802        0        
C2        C        0.166667        0.740741        0.301802        0        
C2        C        0.277778        0.740741        0.301802        0        
C2        C        0.388889        0.740741        0.301802        0        
C2        C        0.5        0.740741        0.301802        0        
C2        C        0.611111        0.740741        0.301802        0        
C2        C        0.722222        0.740741        0.301802        0        
C2        C        0.833333        0.740741        0.301802        0        
C2        C        0.944444        0.740741        0.301802        0        
C3        C        0.0        0.759259        0.301802        0        
C3        C        0.111111        0.759259        0.301802        0        
C3        C        0.222222        0.759259        0.301802        0        
C3        C        0.333333        0.759259        0.301802        0        
C3        C        0.444444        0.759259        0.301802        0        
C3        C        0.555556        0.759259        0.301802        0        
C3        C        0.666667        0.759259        0.301802        0        
C3        C        0.777778        0.759259        0.301802        0        
C3        C        0.888889        0.759259        0.301802        0        
C4        C        0.055556        0.703703        0.301802        0        
C4        C        0.166667        0.703703        0.301802        0        
C4        C        0.277778        0.703703        0.301802        0        
C4        C        0.388889        0.703703        0.301802        0        
C4        C        0.5        0.703703        0.301802        0        
C4        C        0.611111        0.703703        0.301802        0        
C4        C        0.722222        0.703703        0.301802        0        
C4        C        0.833333        0.703703        0.301802        0        
C4        C        0.944444        0.703703        0.301802        0        
C1        C        0.0        0.796297        0.301802        0        
C1        C        0.111111        0.796297        0.301802        0        
C1        C        0.222222        0.796297        0.301802        0        
C1        C        0.333333        0.796297        0.301802        0        
C1        C        0.444444        0.796297        0.301802        0        
C1        C        0.555556        0.796297        0.301802        0        
C1        C        0.666667        0.796297        0.301802        0        
C1        C        0.777778        0.796297        0.301802        0        
C1        C        0.888889        0.796297        0.301802        0        
C2        C        0.055556        0.851852        0.301802        0        
C2        C        0.166667        0.851852        0.301802        0        
C2        C        0.277778        0.851852        0.301802        0        
C2        C        0.388889        0.851852        0.301802        0        
C2        C        0.5        0.851852        0.301802        0        
C2        C        0.611111        0.851852        0.301802        0        
C2        C        0.722222        0.851852        0.301802        0        
C2        C        0.833333        0.851852        0.301802        0        
C2        C        0.944444        0.851852        0.301802        0        
C3        C        0.0        0.87037        0.301802        0        
C3        C        0.111111        0.87037        0.301802        0        
C3        C        0.222222        0.87037        0.301802        0        
C3        C        0.333333        0.87037        0.301802        0        
C3        C        0.444444        0.87037        0.301802        0        
C3        C        0.555556        0.87037        0.301802        0        
C3        C        0.666667        0.87037        0.301802        0        
C3        C        0.777778        0.87037        0.301802        0        
C3        C        0.888889        0.87037        0.301802        0        
C4        C        0.055556        0.814814        0.301802        0        
C4        C        0.166667        0.814814        0.301802        0        
C4        C        0.277778        0.814814        0.301802        0        
C4        C        0.388889        0.814814        0.301802        0        
C4        C        0.5        0.814814        0.301802        0        
C4        C        0.611111        0.814814        0.301802        0        
C4        C        0.722222        0.814814        0.301802        0        
C4        C        0.833333        0.814814        0.301802        0        
C4        C        0.944444        0.814814        0.301802        0        
C1        C        0.0        0.907408        0.301802        0        
C1        C        0.111111        0.907408        0.301802        0        
C1        C        0.222222        0.907408        0.301802        0        
C1        C        0.333333        0.907408        0.301802        0        
C1        C        0.444444        0.907408        0.301802        0        
C1        C        0.555556        0.907408        0.301802        0        
C1        C        0.666667        0.907408        0.301802        0        
C1        C        0.777778        0.907408        0.301802        0        
C1        C        0.888889        0.907408        0.301802        0        
C2        C        0.055556        0.962963        0.301802        0        
C2        C        0.166667        0.962963        0.301802        0        
C2        C        0.277778        0.962963        0.301802        0        
C2        C        0.388889        0.962963        0.301802        0        
C2        C        0.5        0.962963        0.301802        0        
C2        C        0.611111        0.962963        0.301802        0        
C2        C        0.722222        0.962963        0.301802        0        
C2        C        0.833333        0.962963        0.301802        0        
C2        C        0.944444        0.962963        0.301802        0        
C3        C        0.0        0.981481        0.301802        0        
C3        C        0.111111        0.981481        0.301802        0        
C3        C        0.222222        0.981481        0.301802        0        
C3        C        0.333333        0.981481        0.301802        0        
C3        C        0.444444        0.981481        0.301802        0        
C3        C        0.555556        0.981481        0.301802        0        
C3        C        0.666667        0.981481        0.301802        0        
C3        C        0.777778        0.981481        0.301802        0        
C3        C        0.888889        0.981481        0.301802        0        
C4        C        0.055556        0.925925        0.301802        0        
C4        C        0.166667        0.925925        0.301802        0        
C4        C        0.277778        0.925925        0.301802        0        
C4        C        0.388889        0.925925        0.301802        0        
C4        C        0.5        0.925925        0.301802        0        
C4        C        0.611111        0.925925        0.301802        0        
C4        C        0.722222        0.925925        0.301802        0        
C4        C        0.833333        0.925925        0.301802        0        
C4        C        0.944444        0.925925        0.301802        0        
