data_graphite_ortho

_audit_creation_method RASPA-1.0
_audit_creation_date 2012-2-3
_audit_author_name 'David Dubbeldam'

_cell_length_a    31.98    
_cell_length_b    38.34    
_cell_length_c    28.9    
_cell_angle_alpha 90
_cell_angle_beta  90
_cell_angle_gamma 90
_cell_volume      35434.67      

_symmetry_cell_setting          triclinic
_symmetry_space_group_name_Hall 'P 1'
_symmetry_space_group_name_H-M  'P 1'
_symmetry_Int_Tables_number     1

_symmetry_equiv_pos_as_xyz 'x,y,z'

loop_
_atom_site_label
_atom_site_type_symbol
_atom_site_fract_x
_atom_site_fract_y
_atom_site_fract_z
_atom_site_charge
C1        C        0.0        0.018519        0.0        0        
C2        C        0.038462        0.074075        0.0        0        
C3        C        0.0        0.092592        0.0        0        
C4        C        0.038462        0.037037        0.0        0        
C1        C        0.0        0.12963        0.0        0        
C2        C        0.038462        0.185185        0.0        0        
C3        C        0.0        0.203703        0.0        0        
C4        C        0.038462        0.148148        0.0        0        
C1        C        0.0        0.24074099999999998        0.0        0        
C2        C        0.038462        0.296297        0.0        0        
C3        C        0.0        0.314815        0.0        0        
C4        C        0.038462        0.259259        0.0        0        
C1        C        0.0        0.351852        0.0        0        
C2        C        0.038462        0.407408        0.0        0        
C3        C        0.0        0.42592500000000005        0.0        0        
C4        C        0.038462        0.37037        0.0        0        
C1        C        0.0        0.46296300000000007        0.0        0        
C2        C        0.038462        0.518519        0.0        0        
C3        C        0.0        0.537037        0.0        0        
C4        C        0.038462        0.481481        0.0        0        
C1        C        0.0        0.574075        0.0        0        
C2        C        0.038462        0.62963        0.0        0        
C3        C        0.0        0.648148        0.0        0        
C4        C        0.038462        0.592592        0.0        0        
C1        C        0.076923        0.018519        0.0        0        
C2        C        0.115385        0.074075        0.0        0        
C3        C        0.076923        0.092592        0.0        0        
C4        C        0.115385        0.037037        0.0        0        
C1        C        0.076923        0.12963        0.0        0        
C2        C        0.115385        0.185185        0.0        0        
C3        C        0.076923        0.203703        0.0        0        
C4        C        0.115385        0.148148        0.0        0        
C1        C        0.076923        0.24074099999999998        0.0        0        
C2        C        0.115385        0.296297        0.0        0        
C3        C        0.076923        0.314815        0.0        0        
C4        C        0.115385        0.259259        0.0        0        
C1        C        0.076923        0.351852        0.0        0        
C2        C        0.115385        0.407408        0.0        0        
C3        C        0.076923        0.42592500000000005        0.0        0        
C4        C        0.115385        0.37037        0.0        0        
C1        C        0.076923        0.46296300000000007        0.0        0        
C2        C        0.115385        0.518519        0.0        0        
C3        C        0.076923        0.537037        0.0        0        
C4        C        0.115385        0.481481        0.0        0        
C1        C        0.076923        0.574075        0.0        0        
C2        C        0.115385        0.62963        0.0        0        
C3        C        0.076923        0.648148        0.0        0        
C4        C        0.115385        0.592592        0.0        0        
C1        C        0.153846        0.018519        0.0        0        
C2        C        0.192308        0.074075        0.0        0        
C3        C        0.153846        0.092592        0.0        0        
C4        C        0.192308        0.037037        0.0        0        
C1        C        0.153846        0.12963        0.0        0        
C2        C        0.192308        0.185185        0.0        0        
C3        C        0.153846        0.203703        0.0        0        
C4        C        0.192308        0.148148        0.0        0        
C1        C        0.153846        0.24074099999999998        0.0        0        
C2        C        0.192308        0.296297        0.0        0        
C3        C        0.153846        0.314815        0.0        0        
C4        C        0.192308        0.259259        0.0        0        
C1        C        0.153846        0.351852        0.0        0        
C2        C        0.192308        0.407408        0.0        0        
C3        C        0.153846        0.42592500000000005        0.0        0        
C4        C        0.192308        0.37037        0.0        0        
C1        C        0.153846        0.46296300000000007        0.0        0        
C2        C        0.192308        0.518519        0.0        0        
C3        C        0.153846        0.537037        0.0        0        
C4        C        0.192308        0.481481        0.0        0        
C1        C        0.153846        0.574075        0.0        0        
C2        C        0.192308        0.62963        0.0        0        
C3        C        0.153846        0.648148        0.0        0        
C4        C        0.192308        0.592592        0.0        0        
C1        C        0.230769        0.018519        0.0        0        
C2        C        0.269231        0.074075        0.0        0        
C3        C        0.230769        0.092592        0.0        0        
C4        C        0.269231        0.037037        0.0        0        
C1        C        0.230769        0.12963        0.0        0        
C2        C        0.269231        0.185185        0.0        0        
C3        C        0.230769        0.203703        0.0        0        
C4        C        0.269231        0.148148        0.0        0        
C1        C        0.230769        0.24074099999999998        0.0        0        
C2        C        0.269231        0.296297        0.0        0        
C3        C        0.230769        0.314815        0.0        0        
C4        C        0.269231        0.259259        0.0        0        
C1        C        0.230769        0.351852        0.0        0        
C2        C        0.269231        0.407408        0.0        0        
C3        C        0.230769        0.42592500000000005        0.0        0        
C4        C        0.269231        0.37037        0.0        0        
C1        C        0.230769        0.46296300000000007        0.0        0        
C2        C        0.269231        0.518519        0.0        0        
C3        C        0.230769        0.537037        0.0        0        
C4        C        0.269231        0.481481        0.0        0        
C1        C        0.230769        0.574075        0.0        0        
C2        C        0.269231        0.62963        0.0        0        
C3        C        0.230769        0.648148        0.0        0        
C4        C        0.269231        0.592592        0.0        0        
C1        C        0.307692        0.018519        0.0        0        
C2        C        0.346154        0.074075        0.0        0        
C3        C        0.307692        0.092592        0.0        0        
C4        C        0.346154        0.037037        0.0        0        
C1        C        0.307692        0.12963        0.0        0        
C2        C        0.346154        0.185185        0.0        0        
C3        C        0.307692        0.203703        0.0        0        
C4        C        0.346154        0.148148        0.0        0        
C1        C        0.307692        0.24074099999999998        0.0        0        
C2        C        0.346154        0.296297        0.0        0        
C3        C        0.307692        0.314815        0.0        0        
C4        C        0.346154        0.259259        0.0        0        
C1        C        0.307692        0.351852        0.0        0        
C2        C        0.346154        0.407408        0.0        0        
C3        C        0.307692        0.42592500000000005        0.0        0        
C4        C        0.346154        0.37037        0.0        0        
C1        C        0.307692        0.46296300000000007        0.0        0        
C2        C        0.346154        0.518519        0.0        0        
C3        C        0.307692        0.537037        0.0        0        
C4        C        0.346154        0.481481        0.0        0        
C1        C        0.307692        0.574075        0.0        0        
C2        C        0.346154        0.62963        0.0        0        
C3        C        0.307692        0.648148        0.0        0        
C4        C        0.346154        0.592592        0.0        0        
C1        C        0.384615        0.018519        0.0        0        
C2        C        0.423077        0.074075        0.0        0        
C3        C        0.384615        0.092592        0.0        0        
C4        C        0.423077        0.037037        0.0        0        
C1        C        0.384615        0.12963        0.0        0        
C2        C        0.423077        0.185185        0.0        0        
C3        C        0.384615        0.203703        0.0        0        
C4        C        0.423077        0.148148        0.0        0        
C1        C        0.384615        0.24074099999999998        0.0        0        
C2        C        0.423077        0.296297        0.0        0        
C3        C        0.384615        0.314815        0.0        0        
C4        C        0.423077        0.259259        0.0        0        
C1        C        0.384615        0.351852        0.0        0        
C2        C        0.423077        0.407408        0.0        0        
C3        C        0.384615        0.42592500000000005        0.0        0        
C4        C        0.423077        0.37037        0.0        0        
C1        C        0.384615        0.46296300000000007        0.0        0        
C2        C        0.423077        0.518519        0.0        0        
C3        C        0.384615        0.537037        0.0        0        
C4        C        0.423077        0.481481        0.0        0        
C1        C        0.384615        0.574075        0.0        0        
C2        C        0.423077        0.62963        0.0        0        
C3        C        0.384615        0.648148        0.0        0        
C4        C        0.423077        0.592592        0.0        0        
C1        C        0.461538        0.018519        0.0        0        
C2        C        0.5        0.074075        0.0        0        
C3        C        0.461538        0.092592        0.0        0        
C4        C        0.5        0.037037        0.0        0        
C1        C        0.461538        0.12963        0.0        0        
C2        C        0.5        0.185185        0.0        0        
C3        C        0.461538        0.203703        0.0        0        
C4        C        0.5        0.148148        0.0        0        
C1        C        0.461538        0.24074099999999998        0.0        0        
C2        C        0.5        0.296297        0.0        0        
C3        C        0.461538        0.314815        0.0        0        
C4        C        0.5        0.259259        0.0        0        
C1        C        0.461538        0.351852        0.0        0        
C2        C        0.5        0.407408        0.0        0        
C3        C        0.461538        0.42592500000000005        0.0        0        
C4        C        0.5        0.37037        0.0        0        
C1        C        0.461538        0.46296300000000007        0.0        0        
C2        C        0.5        0.518519        0.0        0        
C3        C        0.461538        0.537037        0.0        0        
C4        C        0.5        0.481481        0.0        0        
C1        C        0.461538        0.574075        0.0        0        
C2        C        0.5        0.62963        0.0        0        
C3        C        0.461538        0.648148        0.0        0        
C4        C        0.5        0.592592        0.0        0        
C1        C        0.538462        0.018519        0.0        0        
C2        C        0.576923        0.074075        0.0        0        
C3        C        0.538462        0.092592        0.0        0        
C4        C        0.576923        0.037037        0.0        0        
C1        C        0.538462        0.12963        0.0        0        
C2        C        0.576923        0.185185        0.0        0        
C3        C        0.538462        0.203703        0.0        0        
C4        C        0.576923        0.148148        0.0        0        
C1        C        0.538462        0.24074099999999998        0.0        0        
C2        C        0.576923        0.296297        0.0        0        
C3        C        0.538462        0.314815        0.0        0        
C4        C        0.576923        0.259259        0.0        0        
C1        C        0.538462        0.351852        0.0        0        
C2        C        0.576923        0.407408        0.0        0        
C3        C        0.538462        0.42592500000000005        0.0        0        
C4        C        0.576923        0.37037        0.0        0        
C1        C        0.538462        0.46296300000000007        0.0        0        
C2        C        0.576923        0.518519        0.0        0        
C3        C        0.538462        0.537037        0.0        0        
C4        C        0.576923        0.481481        0.0        0        
C1        C        0.538462        0.574075        0.0        0        
C2        C        0.576923        0.62963        0.0        0        
C3        C        0.538462        0.648148        0.0        0        
C4        C        0.576923        0.592592        0.0        0        
C1        C        0.615385        0.018519        0.0        0        
C2        C        0.653846        0.074075        0.0        0        
C3        C        0.615385        0.092592        0.0        0        
C4        C        0.653846        0.037037        0.0        0        
C1        C        0.615385        0.12963        0.0        0        
C2        C        0.653846        0.185185        0.0        0        
C3        C        0.615385        0.203703        0.0        0        
C4        C        0.653846        0.148148        0.0        0        
C1        C        0.615385        0.24074099999999998        0.0        0        
C2        C        0.653846        0.296297        0.0        0        
C3        C        0.615385        0.314815        0.0        0        
C4        C        0.653846        0.259259        0.0        0        
C1        C        0.615385        0.351852        0.0        0        
C2        C        0.653846        0.407408        0.0        0        
C3        C        0.615385        0.42592500000000005        0.0        0        
C4        C        0.653846        0.37037        0.0        0        
C1        C        0.615385        0.46296300000000007        0.0        0        
C2        C        0.653846        0.518519        0.0        0        
C3        C        0.615385        0.537037        0.0        0        
C4        C        0.653846        0.481481        0.0        0        
C1        C        0.615385        0.574075        0.0        0        
C2        C        0.653846        0.62963        0.0        0        
C3        C        0.615385        0.648148        0.0        0        
C4        C        0.653846        0.592592        0.0        0        
C1        C        0.692308        0.018519        0.0        0        
C2        C        0.730769        0.074075        0.0        0        
C3        C        0.692308        0.092592        0.0        0        
C4        C        0.730769        0.037037        0.0        0        
C1        C        0.692308        0.12963        0.0        0        
C2        C        0.730769        0.185185        0.0        0        
C3        C        0.692308        0.203703        0.0        0        
C4        C        0.730769        0.148148        0.0        0        
C1        C        0.692308        0.24074099999999998        0.0        0        
C2        C        0.730769        0.296297        0.0        0        
C3        C        0.692308        0.314815        0.0        0        
C4        C        0.730769        0.259259        0.0        0        
C1        C        0.692308        0.351852        0.0        0        
C2        C        0.730769        0.407408        0.0        0        
C3        C        0.692308        0.42592500000000005        0.0        0        
C4        C        0.730769        0.37037        0.0        0        
C1        C        0.692308        0.46296300000000007        0.0        0        
C2        C        0.730769        0.518519        0.0        0        
C3        C        0.692308        0.537037        0.0        0        
C4        C        0.730769        0.481481        0.0        0        
C1        C        0.692308        0.574075        0.0        0        
C2        C        0.730769        0.62963        0.0        0        
C3        C        0.692308        0.648148        0.0        0        
C4        C        0.730769        0.592592        0.0        0        
C1        C        0.769231        0.018519        0.0        0        
C2        C        0.807692        0.074075        0.0        0        
C3        C        0.769231        0.092592        0.0        0        
C4        C        0.807692        0.037037        0.0        0        
C1        C        0.769231        0.12963        0.0        0        
C2        C        0.807692        0.185185        0.0        0        
C3        C        0.769231        0.203703        0.0        0        
C4        C        0.807692        0.148148        0.0        0        
C1        C        0.769231        0.24074099999999998        0.0        0        
C2        C        0.807692        0.296297        0.0        0        
C3        C        0.769231        0.314815        0.0        0        
C4        C        0.807692        0.259259        0.0        0        
C1        C        0.769231        0.351852        0.0        0        
C2        C        0.807692        0.407408        0.0        0        
C3        C        0.769231        0.42592500000000005        0.0        0        
C4        C        0.807692        0.37037        0.0        0        
C1        C        0.769231        0.46296300000000007        0.0        0        
C2        C        0.807692        0.518519        0.0        0        
C3        C        0.769231        0.537037        0.0        0        
C4        C        0.807692        0.481481        0.0        0        
C1        C        0.769231        0.574075        0.0        0        
C2        C        0.807692        0.62963        0.0        0        
C3        C        0.769231        0.648148        0.0        0        
C4        C        0.807692        0.592592        0.0        0        
C1        C        0.846154        0.018519        0.0        0        
C2        C        0.884615        0.074075        0.0        0        
C3        C        0.846154        0.092592        0.0        0        
C4        C        0.884615        0.037037        0.0        0        
C1        C        0.846154        0.12963        0.0        0        
C2        C        0.884615        0.185185        0.0        0        
C3        C        0.846154        0.203703        0.0        0        
C4        C        0.884615        0.148148        0.0        0        
C1        C        0.846154        0.24074099999999998        0.0        0        
C2        C        0.884615        0.296297        0.0        0        
C3        C        0.846154        0.314815        0.0        0        
C4        C        0.884615        0.259259        0.0        0        
C1        C        0.846154        0.351852        0.0        0        
C2        C        0.884615        0.407408        0.0        0        
C3        C        0.846154        0.42592500000000005        0.0        0        
C4        C        0.884615        0.37037        0.0        0        
C1        C        0.846154        0.46296300000000007        0.0        0        
C2        C        0.884615        0.518519        0.0        0        
C3        C        0.846154        0.537037        0.0        0        
C4        C        0.884615        0.481481        0.0        0        
C1        C        0.846154        0.574075        0.0        0        
C2        C        0.884615        0.62963        0.0        0        
C3        C        0.846154        0.648148        0.0        0        
C4        C        0.884615        0.592592        0.0        0        
C1        C        0.923077        0.018519        0.0        0        
C2        C        0.961538        0.074075        0.0        0        
C3        C        0.923077        0.092592        0.0        0        
C4        C        0.961538        0.037037        0.0        0        
C1        C        0.923077        0.12963        0.0        0        
C2        C        0.961538        0.185185        0.0        0        
C3        C        0.923077        0.203703        0.0        0        
C4        C        0.961538        0.148148        0.0        0        
C1        C        0.923077        0.24074099999999998        0.0        0        
C2        C        0.961538        0.296297        0.0        0        
C3        C        0.923077        0.314815        0.0        0        
C4        C        0.961538        0.259259        0.0        0        
C1        C        0.923077        0.351852        0.0        0        
C2        C        0.961538        0.407408        0.0        0        
C3        C        0.923077        0.42592500000000005        0.0        0        
C4        C        0.961538        0.37037        0.0        0        
C1        C        0.923077        0.46296300000000007        0.0        0        
C2        C        0.961538        0.518519        0.0        0        
C3        C        0.923077        0.537037        0.0        0        
C4        C        0.961538        0.481481        0.0        0        
C1        C        0.923077        0.574075        0.0        0        
C2        C        0.961538        0.62963        0.0        0        
C3        C        0.923077        0.648148        0.0        0        
C4        C        0.961538        0.592592        0.0        0        
C1        C        1.0        0.018519        0.0        0        
C2        C        1.038462        0.074075        0.0        0        
C3        C        1.0        0.092592        0.0        0        
C4        C        1.038462        0.037037        0.0        0        
C1        C        1.0        0.12963        0.0        0        
C2        C        1.038462        0.185185        0.0        0        
C3        C        1.0        0.203703        0.0        0        
C4        C        1.038462        0.148148        0.0        0        
C1        C        1.0        0.24074099999999998        0.0        0        
C2        C        1.038462        0.296297        0.0        0        
C3        C        1.0        0.314815        0.0        0        
C4        C        1.038462        0.259259        0.0        0        
C1        C        1.0        0.351852        0.0        0        
C2        C        1.038462        0.407408        0.0        0        
C3        C        1.0        0.42592500000000005        0.0        0        
C4        C        1.038462        0.37037        0.0        0        
C1        C        1.0        0.46296300000000007        0.0        0        
C2        C        1.038462        0.518519        0.0        0        
C3        C        1.0        0.537037        0.0        0        
C4        C        1.038462        0.481481        0.0        0        
C1        C        1.0        0.574075        0.0        0        
C2        C        1.038462        0.62963        0.0        0        
C3        C        1.0        0.648148        0.0        0        
C4        C        1.038462        0.592592        0.0        0        
C1        C        0.0        0.685186        0.0        0        
C1        C        0.076923        0.685186        0.0        0        
C1        C        0.153846        0.685186        0.0        0        
C1        C        0.230769        0.685186        0.0        0        
C1        C        0.307692        0.685186        0.0        0        
C1        C        0.384615        0.685186        0.0        0        
C1        C        0.461538        0.685186        0.0        0        
C1        C        0.538462        0.685186        0.0        0        
C1        C        0.615385        0.685186        0.0        0        
C1        C        0.692308        0.685186        0.0        0        
C1        C        0.769231        0.685186        0.0        0        
C1        C        0.846154        0.685186        0.0        0        
C1        C        0.923077        0.685186        0.0        0        
C1        C        1.0        0.685186        0.0        0        
C2        C        0.038462        0.740741        0.0        0        
C2        C        0.115385        0.740741        0.0        0        
C2        C        0.192308        0.740741        0.0        0        
C2        C        0.269231        0.740741        0.0        0        
C2        C        0.346154        0.740741        0.0        0        
C2        C        0.423077        0.740741        0.0        0        
C2        C        0.5        0.740741        0.0        0        
C2        C        0.576923        0.740741        0.0        0        
C2        C        0.653846        0.740741        0.0        0        
C2        C        0.730769        0.740741        0.0        0        
C2        C        0.807692        0.740741        0.0        0        
C2        C        0.884615        0.740741        0.0        0        
C2        C        0.961538        0.740741        0.0        0        
C2        C        1.038462        0.740741        0.0        0        
C3        C        0.0        0.759259        0.0        0        
C3        C        0.076923        0.759259        0.0        0        
C3        C        0.153846        0.759259        0.0        0        
C3        C        0.230769        0.759259        0.0        0        
C3        C        0.307692        0.759259        0.0        0        
C3        C        0.384615        0.759259        0.0        0        
C3        C        0.461538        0.759259        0.0        0        
C3        C        0.538462        0.759259        0.0        0        
C3        C        0.615385        0.759259        0.0        0        
C3        C        0.692308        0.759259        0.0        0        
C3        C        0.769231        0.759259        0.0        0        
C3        C        0.846154        0.759259        0.0        0        
C3        C        0.923077        0.759259        0.0        0        
C3        C        1.0        0.759259        0.0        0        
C4        C        0.038462        0.703703        0.0        0        
C4        C        0.115385        0.703703        0.0        0        
C4        C        0.192308        0.703703        0.0        0        
C4        C        0.269231        0.703703        0.0        0        
C4        C        0.346154        0.703703        0.0        0        
C4        C        0.423077        0.703703        0.0        0        
C4        C        0.5        0.703703        0.0        0        
C4        C        0.576923        0.703703        0.0        0        
C4        C        0.653846        0.703703        0.0        0        
C4        C        0.730769        0.703703        0.0        0        
C4        C        0.807692        0.703703        0.0        0        
C4        C        0.884615        0.703703        0.0        0        
C4        C        0.961538        0.703703        0.0        0        
C4        C        1.038462        0.703703        0.0        0        
C1        C        0.0        0.796297        0.0        0        
C1        C        0.076923        0.796297        0.0        0        
C1        C        0.153846        0.796297        0.0        0        
C1        C        0.230769        0.796297        0.0        0        
C1        C        0.307692        0.796297        0.0        0        
C1        C        0.384615        0.796297        0.0        0        
C1        C        0.461538        0.796297        0.0        0        
C1        C        0.538462        0.796297        0.0        0        
C1        C        0.615385        0.796297        0.0        0        
C1        C        0.692308        0.796297        0.0        0        
C1        C        0.769231        0.796297        0.0        0        
C1        C        0.846154        0.796297        0.0        0        
C1        C        0.923077        0.796297        0.0        0        
C1        C        1.0        0.796297        0.0        0        
C2        C        0.038462        0.851852        0.0        0        
C2        C        0.115385        0.851852        0.0        0        
C2        C        0.192308        0.851852        0.0        0        
C2        C        0.269231        0.851852        0.0        0        
C2        C        0.346154        0.851852        0.0        0        
C2        C        0.423077        0.851852        0.0        0        
C2        C        0.5        0.851852        0.0        0        
C2        C        0.576923        0.851852        0.0        0        
C2        C        0.653846        0.851852        0.0        0        
C2        C        0.730769        0.851852        0.0        0        
C2        C        0.807692        0.851852        0.0        0        
C2        C        0.884615        0.851852        0.0        0        
C2        C        0.961538        0.851852        0.0        0        
C2        C        1.038462        0.851852        0.0        0        
C3        C        0.0        0.87037        0.0        0        
C3        C        0.076923        0.87037        0.0        0        
C3        C        0.153846        0.87037        0.0        0        
C3        C        0.230769        0.87037        0.0        0        
C3        C        0.307692        0.87037        0.0        0        
C3        C        0.384615        0.87037        0.0        0        
C3        C        0.461538        0.87037        0.0        0        
C3        C        0.538462        0.87037        0.0        0        
C3        C        0.615385        0.87037        0.0        0        
C3        C        0.692308        0.87037        0.0        0        
C3        C        0.769231        0.87037        0.0        0        
C3        C        0.846154        0.87037        0.0        0        
C3        C        0.923077        0.87037        0.0        0        
C3        C        1.0        0.87037        0.0        0        
C4        C        0.038462        0.814814        0.0        0        
C4        C        0.115385        0.814814        0.0        0        
C4        C        0.192308        0.814814        0.0        0        
C4        C        0.269231        0.814814        0.0        0        
C4        C        0.346154        0.814814        0.0        0        
C4        C        0.423077        0.814814        0.0        0        
C4        C        0.5        0.814814        0.0        0        
C4        C        0.576923        0.814814        0.0        0        
C4        C        0.653846        0.814814        0.0        0        
C4        C        0.730769        0.814814        0.0        0        
C4        C        0.807692        0.814814        0.0        0        
C4        C        0.884615        0.814814        0.0        0        
C4        C        0.961538        0.814814        0.0        0        
C4        C        1.038462        0.814814        0.0        0        
C1        C        0.0        0.907408        0.0        0        
C1        C        0.076923        0.907408        0.0        0        
C1        C        0.153846        0.907408        0.0        0        
C1        C        0.230769        0.907408        0.0        0        
C1        C        0.307692        0.907408        0.0        0        
C1        C        0.384615        0.907408        0.0        0        
C1        C        0.461538        0.907408        0.0        0        
C1        C        0.538462        0.907408        0.0        0        
C1        C        0.615385        0.907408        0.0        0        
C1        C        0.692308        0.907408        0.0        0        
C1        C        0.769231        0.907408        0.0        0        
C1        C        0.846154        0.907408        0.0        0        
C1        C        0.923077        0.907408        0.0        0        
C1        C        1.0        0.907408        0.0        0        
C2        C        0.038462        0.962963        0.0        0        
C2        C        0.115385        0.962963        0.0        0        
C2        C        0.192308        0.962963        0.0        0        
C2        C        0.269231        0.962963        0.0        0        
C2        C        0.346154        0.962963        0.0        0        
C2        C        0.423077        0.962963        0.0        0        
C2        C        0.5        0.962963        0.0        0        
C2        C        0.576923        0.962963        0.0        0        
C2        C        0.653846        0.962963        0.0        0        
C2        C        0.730769        0.962963        0.0        0        
C2        C        0.807692        0.962963        0.0        0        
C2        C        0.884615        0.962963        0.0        0        
C2        C        0.961538        0.962963        0.0        0        
C2        C        1.038462        0.962963        0.0        0        
C3        C        0.0        0.9814809999999999        0.0        0        
C3        C        0.076923        0.9814809999999999        0.0        0        
C3        C        0.153846        0.9814809999999999        0.0        0        
C3        C        0.230769        0.9814809999999999        0.0        0        
C3        C        0.307692        0.9814809999999999        0.0        0        
C3        C        0.384615        0.9814809999999999        0.0        0        
C3        C        0.461538        0.9814809999999999        0.0        0        
C3        C        0.538462        0.9814809999999999        0.0        0        
C3        C        0.615385        0.9814809999999999        0.0        0        
C3        C        0.692308        0.9814809999999999        0.0        0        
C3        C        0.769231        0.9814809999999999        0.0        0        
C3        C        0.846154        0.9814809999999999        0.0        0        
C3        C        0.923077        0.9814809999999999        0.0        0        
C3        C        1.0        0.9814809999999999        0.0        0        
C4        C        0.038462        0.925925        0.0        0        
C4        C        0.115385        0.925925        0.0        0        
C4        C        0.192308        0.925925        0.0        0        
C4        C        0.269231        0.925925        0.0        0        
C4        C        0.346154        0.925925        0.0        0        
C4        C        0.423077        0.925925        0.0        0        
C4        C        0.5        0.925925        0.0        0        
C4        C        0.576923        0.925925        0.0        0        
C4        C        0.653846        0.925925        0.0        0        
C4        C        0.730769        0.925925        0.0        0        
C4        C        0.807692        0.925925        0.0        0        
C4        C        0.884615        0.925925        0.0        0        
C4        C        0.961538        0.925925        0.0        0        
C4        C        1.038462        0.925925        0.0        0        
C1        C        0.0        0.018519        0.115917        0        
C2        C        0.038462        0.074075        0.115917        0        
C3        C        0.0        0.092592        0.115917        0        
C4        C        0.038462        0.037037        0.115917        0        
C1        C        0.0        0.12963        0.115917        0        
C2        C        0.038462        0.185185        0.115917        0        
C3        C        0.0        0.203703        0.115917        0        
C4        C        0.038462        0.148148        0.115917        0        
C1        C        0.0        0.24074099999999998        0.115917        0        
C2        C        0.038462        0.296297        0.115917        0        
C3        C        0.0        0.314815        0.115917        0        
C4        C        0.038462        0.259259        0.115917        0        
C1        C        0.0        0.351852        0.115917        0        
C2        C        0.038462        0.407408        0.115917        0        
C3        C        0.0        0.42592500000000005        0.115917        0        
C4        C        0.038462        0.37037        0.115917        0        
C1        C        0.0        0.46296300000000007        0.115917        0        
C2        C        0.038462        0.518519        0.115917        0        
C3        C        0.0        0.537037        0.115917        0        
C4        C        0.038462        0.481481        0.115917        0        
C1        C        0.0        0.574075        0.115917        0        
C2        C        0.038462        0.62963        0.115917        0        
C3        C        0.0        0.648148        0.115917        0        
C4        C        0.038462        0.592592        0.115917        0        
C1        C        0.076923        0.018519        0.115917        0        
C2        C        0.115385        0.074075        0.115917        0        
C3        C        0.076923        0.092592        0.115917        0        
C4        C        0.115385        0.037037        0.115917        0        
C1        C        0.076923        0.12963        0.115917        0        
C2        C        0.115385        0.185185        0.115917        0        
C3        C        0.076923        0.203703        0.115917        0        
C4        C        0.115385        0.148148        0.115917        0        
C1        C        0.076923        0.24074099999999998        0.115917        0        
C2        C        0.115385        0.296297        0.115917        0        
C3        C        0.076923        0.314815        0.115917        0        
C4        C        0.115385        0.259259        0.115917        0        
C1        C        0.076923        0.351852        0.115917        0        
C2        C        0.115385        0.407408        0.115917        0        
C3        C        0.076923        0.42592500000000005        0.115917        0        
C4        C        0.115385        0.37037        0.115917        0        
C1        C        0.076923        0.46296300000000007        0.115917        0        
C2        C        0.115385        0.518519        0.115917        0        
C3        C        0.076923        0.537037        0.115917        0        
C4        C        0.115385        0.481481        0.115917        0        
C1        C        0.076923        0.574075        0.115917        0        
C2        C        0.115385        0.62963        0.115917        0        
C3        C        0.076923        0.648148        0.115917        0        
C4        C        0.115385        0.592592        0.115917        0        
C1        C        0.153846        0.018519        0.115917        0        
C2        C        0.192308        0.074075        0.115917        0        
C3        C        0.153846        0.092592        0.115917        0        
C4        C        0.192308        0.037037        0.115917        0        
C1        C        0.153846        0.12963        0.115917        0        
C2        C        0.192308        0.185185        0.115917        0        
C3        C        0.153846        0.203703        0.115917        0        
C4        C        0.192308        0.148148        0.115917        0        
C1        C        0.153846        0.24074099999999998        0.115917        0        
C2        C        0.192308        0.296297        0.115917        0        
C3        C        0.153846        0.314815        0.115917        0        
C4        C        0.192308        0.259259        0.115917        0        
C1        C        0.153846        0.351852        0.115917        0        
C2        C        0.192308        0.407408        0.115917        0        
C3        C        0.153846        0.42592500000000005        0.115917        0        
C4        C        0.192308        0.37037        0.115917        0        
C1        C        0.153846        0.46296300000000007        0.115917        0        
C2        C        0.192308        0.518519        0.115917        0        
C3        C        0.153846        0.537037        0.115917        0        
C4        C        0.192308        0.481481        0.115917        0        
C1        C        0.153846        0.574075        0.115917        0        
C2        C        0.192308        0.62963        0.115917        0        
C3        C        0.153846        0.648148        0.115917        0        
C4        C        0.192308        0.592592        0.115917        0        
C1        C        0.230769        0.018519        0.115917        0        
C2        C        0.269231        0.074075        0.115917        0        
C3        C        0.230769        0.092592        0.115917        0        
C4        C        0.269231        0.037037        0.115917        0        
C1        C        0.230769        0.12963        0.115917        0        
C2        C        0.269231        0.185185        0.115917        0        
C3        C        0.230769        0.203703        0.115917        0        
C4        C        0.269231        0.148148        0.115917        0        
C1        C        0.230769        0.24074099999999998        0.115917        0        
C2        C        0.269231        0.296297        0.115917        0        
C3        C        0.230769        0.314815        0.115917        0        
C4        C        0.269231        0.259259        0.115917        0        
C1        C        0.230769        0.351852        0.115917        0        
C2        C        0.269231        0.407408        0.115917        0        
C3        C        0.230769        0.42592500000000005        0.115917        0        
C4        C        0.269231        0.37037        0.115917        0        
C1        C        0.230769        0.46296300000000007        0.115917        0        
C2        C        0.269231        0.518519        0.115917        0        
C3        C        0.230769        0.537037        0.115917        0        
C4        C        0.269231        0.481481        0.115917        0        
C1        C        0.230769        0.574075        0.115917        0        
C2        C        0.269231        0.62963        0.115917        0        
C3        C        0.230769        0.648148        0.115917        0        
C4        C        0.269231        0.592592        0.115917        0        
C1        C        0.307692        0.018519        0.115917        0        
C2        C        0.346154        0.074075        0.115917        0        
C3        C        0.307692        0.092592        0.115917        0        
C4        C        0.346154        0.037037        0.115917        0        
C1        C        0.307692        0.12963        0.115917        0        
C2        C        0.346154        0.185185        0.115917        0        
C3        C        0.307692        0.203703        0.115917        0        
C4        C        0.346154        0.148148        0.115917        0        
C1        C        0.307692        0.24074099999999998        0.115917        0        
C2        C        0.346154        0.296297        0.115917        0        
C3        C        0.307692        0.314815        0.115917        0        
C4        C        0.346154        0.259259        0.115917        0        
C1        C        0.307692        0.351852        0.115917        0        
C2        C        0.346154        0.407408        0.115917        0        
C3        C        0.307692        0.42592500000000005        0.115917        0        
C4        C        0.346154        0.37037        0.115917        0        
C1        C        0.307692        0.46296300000000007        0.115917        0        
C2        C        0.346154        0.518519        0.115917        0        
C3        C        0.307692        0.537037        0.115917        0        
C4        C        0.346154        0.481481        0.115917        0        
C1        C        0.307692        0.574075        0.115917        0        
C2        C        0.346154        0.62963        0.115917        0        
C3        C        0.307692        0.648148        0.115917        0        
C4        C        0.346154        0.592592        0.115917        0        
C1        C        0.384615        0.018519        0.115917        0        
C2        C        0.423077        0.074075        0.115917        0        
C3        C        0.384615        0.092592        0.115917        0        
C4        C        0.423077        0.037037        0.115917        0        
C1        C        0.384615        0.12963        0.115917        0        
C2        C        0.423077        0.185185        0.115917        0        
C3        C        0.384615        0.203703        0.115917        0        
C4        C        0.423077        0.148148        0.115917        0        
C1        C        0.384615        0.24074099999999998        0.115917        0        
C2        C        0.423077        0.296297        0.115917        0        
C3        C        0.384615        0.314815        0.115917        0        
C4        C        0.423077        0.259259        0.115917        0        
C1        C        0.384615        0.351852        0.115917        0        
C2        C        0.423077        0.407408        0.115917        0        
C3        C        0.384615        0.42592500000000005        0.115917        0        
C4        C        0.423077        0.37037        0.115917        0        
C1        C        0.384615        0.46296300000000007        0.115917        0        
C2        C        0.423077        0.518519        0.115917        0        
C3        C        0.384615        0.537037        0.115917        0        
C4        C        0.423077        0.481481        0.115917        0        
C1        C        0.384615        0.574075        0.115917        0        
C2        C        0.423077        0.62963        0.115917        0        
C3        C        0.384615        0.648148        0.115917        0        
C4        C        0.423077        0.592592        0.115917        0        
C1        C        0.461538        0.018519        0.115917        0        
C2        C        0.5        0.074075        0.115917        0        
C3        C        0.461538        0.092592        0.115917        0        
C4        C        0.5        0.037037        0.115917        0        
C1        C        0.461538        0.12963        0.115917        0        
C2        C        0.5        0.185185        0.115917        0        
C3        C        0.461538        0.203703        0.115917        0        
C4        C        0.5        0.148148        0.115917        0        
C1        C        0.461538        0.24074099999999998        0.115917        0        
C2        C        0.5        0.296297        0.115917        0        
C3        C        0.461538        0.314815        0.115917        0        
C4        C        0.5        0.259259        0.115917        0        
C1        C        0.461538        0.351852        0.115917        0        
C2        C        0.5        0.407408        0.115917        0        
C3        C        0.461538        0.42592500000000005        0.115917        0        
C4        C        0.5        0.37037        0.115917        0        
C1        C        0.461538        0.46296300000000007        0.115917        0        
C2        C        0.5        0.518519        0.115917        0        
C3        C        0.461538        0.537037        0.115917        0        
C4        C        0.5        0.481481        0.115917        0        
C1        C        0.461538        0.574075        0.115917        0        
C2        C        0.5        0.62963        0.115917        0        
C3        C        0.461538        0.648148        0.115917        0        
C4        C        0.5        0.592592        0.115917        0        
C1        C        0.538462        0.018519        0.115917        0        
C2        C        0.576923        0.074075        0.115917        0        
C3        C        0.538462        0.092592        0.115917        0        
C4        C        0.576923        0.037037        0.115917        0        
C1        C        0.538462        0.12963        0.115917        0        
C2        C        0.576923        0.185185        0.115917        0        
C3        C        0.538462        0.203703        0.115917        0        
C4        C        0.576923        0.148148        0.115917        0        
C1        C        0.538462        0.24074099999999998        0.115917        0        
C2        C        0.576923        0.296297        0.115917        0        
C3        C        0.538462        0.314815        0.115917        0        
C4        C        0.576923        0.259259        0.115917        0        
C1        C        0.538462        0.351852        0.115917        0        
C2        C        0.576923        0.407408        0.115917        0        
C3        C        0.538462        0.42592500000000005        0.115917        0        
C4        C        0.576923        0.37037        0.115917        0        
C1        C        0.538462        0.46296300000000007        0.115917        0        
C2        C        0.576923        0.518519        0.115917        0        
C3        C        0.538462        0.537037        0.115917        0        
C4        C        0.576923        0.481481        0.115917        0        
C1        C        0.538462        0.574075        0.115917        0        
C2        C        0.576923        0.62963        0.115917        0        
C3        C        0.538462        0.648148        0.115917        0        
C4        C        0.576923        0.592592        0.115917        0        
C1        C        0.615385        0.018519        0.115917        0        
C2        C        0.653846        0.074075        0.115917        0        
C3        C        0.615385        0.092592        0.115917        0        
C4        C        0.653846        0.037037        0.115917        0        
C1        C        0.615385        0.12963        0.115917        0        
C2        C        0.653846        0.185185        0.115917        0        
C3        C        0.615385        0.203703        0.115917        0        
C4        C        0.653846        0.148148        0.115917        0        
C1        C        0.615385        0.24074099999999998        0.115917        0        
C2        C        0.653846        0.296297        0.115917        0        
C3        C        0.615385        0.314815        0.115917        0        
C4        C        0.653846        0.259259        0.115917        0        
C1        C        0.615385        0.351852        0.115917        0        
C2        C        0.653846        0.407408        0.115917        0        
C3        C        0.615385        0.42592500000000005        0.115917        0        
C4        C        0.653846        0.37037        0.115917        0        
C1        C        0.615385        0.46296300000000007        0.115917        0        
C2        C        0.653846        0.518519        0.115917        0        
C3        C        0.615385        0.537037        0.115917        0        
C4        C        0.653846        0.481481        0.115917        0        
C1        C        0.615385        0.574075        0.115917        0        
C2        C        0.653846        0.62963        0.115917        0        
C3        C        0.615385        0.648148        0.115917        0        
C4        C        0.653846        0.592592        0.115917        0        
C1        C        0.692308        0.018519        0.115917        0        
C2        C        0.730769        0.074075        0.115917        0        
C3        C        0.692308        0.092592        0.115917        0        
C4        C        0.730769        0.037037        0.115917        0        
C1        C        0.692308        0.12963        0.115917        0        
C2        C        0.730769        0.185185        0.115917        0        
C3        C        0.692308        0.203703        0.115917        0        
C4        C        0.730769        0.148148        0.115917        0        
C1        C        0.692308        0.24074099999999998        0.115917        0        
C2        C        0.730769        0.296297        0.115917        0        
C3        C        0.692308        0.314815        0.115917        0        
C4        C        0.730769        0.259259        0.115917        0        
C1        C        0.692308        0.351852        0.115917        0        
C2        C        0.730769        0.407408        0.115917        0        
C3        C        0.692308        0.42592500000000005        0.115917        0        
C4        C        0.730769        0.37037        0.115917        0        
C1        C        0.692308        0.46296300000000007        0.115917        0        
C2        C        0.730769        0.518519        0.115917        0        
C3        C        0.692308        0.537037        0.115917        0        
C4        C        0.730769        0.481481        0.115917        0        
C1        C        0.692308        0.574075        0.115917        0        
C2        C        0.730769        0.62963        0.115917        0        
C3        C        0.692308        0.648148        0.115917        0        
C4        C        0.730769        0.592592        0.115917        0        
C1        C        0.769231        0.018519        0.115917        0        
C2        C        0.807692        0.074075        0.115917        0        
C3        C        0.769231        0.092592        0.115917        0        
C4        C        0.807692        0.037037        0.115917        0        
C1        C        0.769231        0.12963        0.115917        0        
C2        C        0.807692        0.185185        0.115917        0        
C3        C        0.769231        0.203703        0.115917        0        
C4        C        0.807692        0.148148        0.115917        0        
C1        C        0.769231        0.24074099999999998        0.115917        0        
C2        C        0.807692        0.296297        0.115917        0        
C3        C        0.769231        0.314815        0.115917        0        
C4        C        0.807692        0.259259        0.115917        0        
C1        C        0.769231        0.351852        0.115917        0        
C2        C        0.807692        0.407408        0.115917        0        
C3        C        0.769231        0.42592500000000005        0.115917        0        
C4        C        0.807692        0.37037        0.115917        0        
C1        C        0.769231        0.46296300000000007        0.115917        0        
C2        C        0.807692        0.518519        0.115917        0        
C3        C        0.769231        0.537037        0.115917        0        
C4        C        0.807692        0.481481        0.115917        0        
C1        C        0.769231        0.574075        0.115917        0        
C2        C        0.807692        0.62963        0.115917        0        
C3        C        0.769231        0.648148        0.115917        0        
C4        C        0.807692        0.592592        0.115917        0        
C1        C        0.846154        0.018519        0.115917        0        
C2        C        0.884615        0.074075        0.115917        0        
C3        C        0.846154        0.092592        0.115917        0        
C4        C        0.884615        0.037037        0.115917        0        
C1        C        0.846154        0.12963        0.115917        0        
C2        C        0.884615        0.185185        0.115917        0        
C3        C        0.846154        0.203703        0.115917        0        
C4        C        0.884615        0.148148        0.115917        0        
C1        C        0.846154        0.24074099999999998        0.115917        0        
C2        C        0.884615        0.296297        0.115917        0        
C3        C        0.846154        0.314815        0.115917        0        
C4        C        0.884615        0.259259        0.115917        0        
C1        C        0.846154        0.351852        0.115917        0        
C2        C        0.884615        0.407408        0.115917        0        
C3        C        0.846154        0.42592500000000005        0.115917        0        
C4        C        0.884615        0.37037        0.115917        0        
C1        C        0.846154        0.46296300000000007        0.115917        0        
C2        C        0.884615        0.518519        0.115917        0        
C3        C        0.846154        0.537037        0.115917        0        
C4        C        0.884615        0.481481        0.115917        0        
C1        C        0.846154        0.574075        0.115917        0        
C2        C        0.884615        0.62963        0.115917        0        
C3        C        0.846154        0.648148        0.115917        0        
C4        C        0.884615        0.592592        0.115917        0        
C1        C        0.923077        0.018519        0.115917        0        
C2        C        0.961538        0.074075        0.115917        0        
C3        C        0.923077        0.092592        0.115917        0        
C4        C        0.961538        0.037037        0.115917        0        
C1        C        0.923077        0.12963        0.115917        0        
C2        C        0.961538        0.185185        0.115917        0        
C3        C        0.923077        0.203703        0.115917        0        
C4        C        0.961538        0.148148        0.115917        0        
C1        C        0.923077        0.24074099999999998        0.115917        0        
C2        C        0.961538        0.296297        0.115917        0        
C3        C        0.923077        0.314815        0.115917        0        
C4        C        0.961538        0.259259        0.115917        0        
C1        C        0.923077        0.351852        0.115917        0        
C2        C        0.961538        0.407408        0.115917        0        
C3        C        0.923077        0.42592500000000005        0.115917        0        
C4        C        0.961538        0.37037        0.115917        0        
C1        C        0.923077        0.46296300000000007        0.115917        0        
C2        C        0.961538        0.518519        0.115917        0        
C3        C        0.923077        0.537037        0.115917        0        
C4        C        0.961538        0.481481        0.115917        0        
C1        C        0.923077        0.574075        0.115917        0        
C2        C        0.961538        0.62963        0.115917        0        
C3        C        0.923077        0.648148        0.115917        0        
C4        C        0.961538        0.592592        0.115917        0        
C1        C        1.0        0.018519        0.115917        0        
C2        C        1.038462        0.074075        0.115917        0        
C3        C        1.0        0.092592        0.115917        0        
C4        C        1.038462        0.037037        0.115917        0        
C1        C        1.0        0.12963        0.115917        0        
C2        C        1.038462        0.185185        0.115917        0        
C3        C        1.0        0.203703        0.115917        0        
C4        C        1.038462        0.148148        0.115917        0        
C1        C        1.0        0.24074099999999998        0.115917        0        
C2        C        1.038462        0.296297        0.115917        0        
C3        C        1.0        0.314815        0.115917        0        
C4        C        1.038462        0.259259        0.115917        0        
C1        C        1.0        0.351852        0.115917        0        
C2        C        1.038462        0.407408        0.115917        0        
C3        C        1.0        0.42592500000000005        0.115917        0        
C4        C        1.038462        0.37037        0.115917        0        
C1        C        1.0        0.46296300000000007        0.115917        0        
C2        C        1.038462        0.518519        0.115917        0        
C3        C        1.0        0.537037        0.115917        0        
C4        C        1.038462        0.481481        0.115917        0        
C1        C        1.0        0.574075        0.115917        0        
C2        C        1.038462        0.62963        0.115917        0        
C3        C        1.0        0.648148        0.115917        0        
C4        C        1.038462        0.592592        0.115917        0        
C1        C        0.0        0.685186        0.115917        0        
C1        C        0.076923        0.685186        0.115917        0        
C1        C        0.153846        0.685186        0.115917        0        
C1        C        0.230769        0.685186        0.115917        0        
C1        C        0.307692        0.685186        0.115917        0        
C1        C        0.384615        0.685186        0.115917        0        
C1        C        0.461538        0.685186        0.115917        0        
C1        C        0.538462        0.685186        0.115917        0        
C1        C        0.615385        0.685186        0.115917        0        
C1        C        0.692308        0.685186        0.115917        0        
C1        C        0.769231        0.685186        0.115917        0        
C1        C        0.846154        0.685186        0.115917        0        
C1        C        0.923077        0.685186        0.115917        0        
C1        C        1.0        0.685186        0.115917        0        
C2        C        0.038462        0.740741        0.115917        0        
C2        C        0.115385        0.740741        0.115917        0        
C2        C        0.192308        0.740741        0.115917        0        
C2        C        0.269231        0.740741        0.115917        0        
C2        C        0.346154        0.740741        0.115917        0        
C2        C        0.423077        0.740741        0.115917        0        
C2        C        0.5        0.740741        0.115917        0        
C2        C        0.576923        0.740741        0.115917        0        
C2        C        0.653846        0.740741        0.115917        0        
C2        C        0.730769        0.740741        0.115917        0        
C2        C        0.807692        0.740741        0.115917        0        
C2        C        0.884615        0.740741        0.115917        0        
C2        C        0.961538        0.740741        0.115917        0        
C2        C        1.038462        0.740741        0.115917        0        
C3        C        0.0        0.759259        0.115917        0        
C3        C        0.076923        0.759259        0.115917        0        
C3        C        0.153846        0.759259        0.115917        0        
C3        C        0.230769        0.759259        0.115917        0        
C3        C        0.307692        0.759259        0.115917        0        
C3        C        0.384615        0.759259        0.115917        0        
C3        C        0.461538        0.759259        0.115917        0        
C3        C        0.538462        0.759259        0.115917        0        
C3        C        0.615385        0.759259        0.115917        0        
C3        C        0.692308        0.759259        0.115917        0        
C3        C        0.769231        0.759259        0.115917        0        
C3        C        0.846154        0.759259        0.115917        0        
C3        C        0.923077        0.759259        0.115917        0        
C3        C        1.0        0.759259        0.115917        0        
C4        C        0.038462        0.703703        0.115917        0        
C4        C        0.115385        0.703703        0.115917        0        
C4        C        0.192308        0.703703        0.115917        0        
C4        C        0.269231        0.703703        0.115917        0        
C4        C        0.346154        0.703703        0.115917        0        
C4        C        0.423077        0.703703        0.115917        0        
C4        C        0.5        0.703703        0.115917        0        
C4        C        0.576923        0.703703        0.115917        0        
C4        C        0.653846        0.703703        0.115917        0        
C4        C        0.730769        0.703703        0.115917        0        
C4        C        0.807692        0.703703        0.115917        0        
C4        C        0.884615        0.703703        0.115917        0        
C4        C        0.961538        0.703703        0.115917        0        
C4        C        1.038462        0.703703        0.115917        0        
C1        C        0.0        0.796297        0.115917        0        
C1        C        0.076923        0.796297        0.115917        0        
C1        C        0.153846        0.796297        0.115917        0        
C1        C        0.230769        0.796297        0.115917        0        
C1        C        0.307692        0.796297        0.115917        0        
C1        C        0.384615        0.796297        0.115917        0        
C1        C        0.461538        0.796297        0.115917        0        
C1        C        0.538462        0.796297        0.115917        0        
C1        C        0.615385        0.796297        0.115917        0        
C1        C        0.692308        0.796297        0.115917        0        
C1        C        0.769231        0.796297        0.115917        0        
C1        C        0.846154        0.796297        0.115917        0        
C1        C        0.923077        0.796297        0.115917        0        
C1        C        1.0        0.796297        0.115917        0        
C2        C        0.038462        0.851852        0.115917        0        
C2        C        0.115385        0.851852        0.115917        0        
C2        C        0.192308        0.851852        0.115917        0        
C2        C        0.269231        0.851852        0.115917        0        
C2        C        0.346154        0.851852        0.115917        0        
C2        C        0.423077        0.851852        0.115917        0        
C2        C        0.5        0.851852        0.115917        0        
C2        C        0.576923        0.851852        0.115917        0        
C2        C        0.653846        0.851852        0.115917        0        
C2        C        0.730769        0.851852        0.115917        0        
C2        C        0.807692        0.851852        0.115917        0        
C2        C        0.884615        0.851852        0.115917        0        
C2        C        0.961538        0.851852        0.115917        0        
C2        C        1.038462        0.851852        0.115917        0        
C3        C        0.0        0.87037        0.115917        0        
C3        C        0.076923        0.87037        0.115917        0        
C3        C        0.153846        0.87037        0.115917        0        
C3        C        0.230769        0.87037        0.115917        0        
C3        C        0.307692        0.87037        0.115917        0        
C3        C        0.384615        0.87037        0.115917        0        
C3        C        0.461538        0.87037        0.115917        0        
C3        C        0.538462        0.87037        0.115917        0        
C3        C        0.615385        0.87037        0.115917        0        
C3        C        0.692308        0.87037        0.115917        0        
C3        C        0.769231        0.87037        0.115917        0        
C3        C        0.846154        0.87037        0.115917        0        
C3        C        0.923077        0.87037        0.115917        0        
C3        C        1.0        0.87037        0.115917        0        
C4        C        0.038462        0.814814        0.115917        0        
C4        C        0.115385        0.814814        0.115917        0        
C4        C        0.192308        0.814814        0.115917        0        
C4        C        0.269231        0.814814        0.115917        0        
C4        C        0.346154        0.814814        0.115917        0        
C4        C        0.423077        0.814814        0.115917        0        
C4        C        0.5        0.814814        0.115917        0        
C4        C        0.576923        0.814814        0.115917        0        
C4        C        0.653846        0.814814        0.115917        0        
C4        C        0.730769        0.814814        0.115917        0        
C4        C        0.807692        0.814814        0.115917        0        
C4        C        0.884615        0.814814        0.115917        0        
C4        C        0.961538        0.814814        0.115917        0        
C4        C        1.038462        0.814814        0.115917        0        
C1        C        0.0        0.907408        0.115917        0        
C1        C        0.076923        0.907408        0.115917        0        
C1        C        0.153846        0.907408        0.115917        0        
C1        C        0.230769        0.907408        0.115917        0        
C1        C        0.307692        0.907408        0.115917        0        
C1        C        0.384615        0.907408        0.115917        0        
C1        C        0.461538        0.907408        0.115917        0        
C1        C        0.538462        0.907408        0.115917        0        
C1        C        0.615385        0.907408        0.115917        0        
C1        C        0.692308        0.907408        0.115917        0        
C1        C        0.769231        0.907408        0.115917        0        
C1        C        0.846154        0.907408        0.115917        0        
C1        C        0.923077        0.907408        0.115917        0        
C1        C        1.0        0.907408        0.115917        0        
C2        C        0.038462        0.962963        0.115917        0        
C2        C        0.115385        0.962963        0.115917        0        
C2        C        0.192308        0.962963        0.115917        0        
C2        C        0.269231        0.962963        0.115917        0        
C2        C        0.346154        0.962963        0.115917        0        
C2        C        0.423077        0.962963        0.115917        0        
C2        C        0.5        0.962963        0.115917        0        
C2        C        0.576923        0.962963        0.115917        0        
C2        C        0.653846        0.962963        0.115917        0        
C2        C        0.730769        0.962963        0.115917        0        
C2        C        0.807692        0.962963        0.115917        0        
C2        C        0.884615        0.962963        0.115917        0        
C2        C        0.961538        0.962963        0.115917        0        
C2        C        1.038462        0.962963        0.115917        0        
C3        C        0.0        0.9814809999999999        0.115917        0        
C3        C        0.076923        0.9814809999999999        0.115917        0        
C3        C        0.153846        0.9814809999999999        0.115917        0        
C3        C        0.230769        0.9814809999999999        0.115917        0        
C3        C        0.307692        0.9814809999999999        0.115917        0        
C3        C        0.384615        0.9814809999999999        0.115917        0        
C3        C        0.461538        0.9814809999999999        0.115917        0        
C3        C        0.538462        0.9814809999999999        0.115917        0        
C3        C        0.615385        0.9814809999999999        0.115917        0        
C3        C        0.692308        0.9814809999999999        0.115917        0        
C3        C        0.769231        0.9814809999999999        0.115917        0        
C3        C        0.846154        0.9814809999999999        0.115917        0        
C3        C        0.923077        0.9814809999999999        0.115917        0        
C3        C        1.0        0.9814809999999999        0.115917        0        
C4        C        0.038462        0.925925        0.115917        0        
C4        C        0.115385        0.925925        0.115917        0        
C4        C        0.192308        0.925925        0.115917        0        
C4        C        0.269231        0.925925        0.115917        0        
C4        C        0.346154        0.925925        0.115917        0        
C4        C        0.423077        0.925925        0.115917        0        
C4        C        0.5        0.925925        0.115917        0        
C4        C        0.576923        0.925925        0.115917        0        
C4        C        0.653846        0.925925        0.115917        0        
C4        C        0.730769        0.925925        0.115917        0        
C4        C        0.807692        0.925925        0.115917        0        
C4        C        0.884615        0.925925        0.115917        0        
C4        C        0.961538        0.925925        0.115917        0        
C4        C        1.038462        0.925925        0.115917        0        
C1        C        0.0        0.018519        0.231834        0        
C2        C        0.038462        0.074075        0.231834        0        
C3        C        0.0        0.092592        0.231834        0        
C4        C        0.038462        0.037037        0.231834        0        
C1        C        0.0        0.12963        0.231834        0        
C2        C        0.038462        0.185185        0.231834        0        
C3        C        0.0        0.203703        0.231834        0        
C4        C        0.038462        0.148148        0.231834        0        
C1        C        0.0        0.24074099999999998        0.231834        0        
C2        C        0.038462        0.296297        0.231834        0        
C3        C        0.0        0.314815        0.231834        0        
C4        C        0.038462        0.259259        0.231834        0        
C1        C        0.0        0.351852        0.231834        0        
C2        C        0.038462        0.407408        0.231834        0        
C3        C        0.0        0.42592500000000005        0.231834        0        
C4        C        0.038462        0.37037        0.231834        0        
C1        C        0.0        0.46296300000000007        0.231834        0        
C2        C        0.038462        0.518519        0.231834        0        
C3        C        0.0        0.537037        0.231834        0        
C4        C        0.038462        0.481481        0.231834        0        
C1        C        0.0        0.574075        0.231834        0        
C2        C        0.038462        0.62963        0.231834        0        
C3        C        0.0        0.648148        0.231834        0        
C4        C        0.038462        0.592592        0.231834        0        
C_FG        C        0.076923        0.018519        0.231834        0.2        
C2        C        0.115385        0.074075        0.231834        0        
C3        C        0.076923        0.092592        0.231834        0        
C4        C        0.115385        0.037037        0.231834        0        
C1        C        0.076923        0.12963        0.231834        0        
C2        C        0.115385        0.185185        0.231834        0        
C3        C        0.076923        0.203703        0.231834        0        
C4        C        0.115385        0.148148        0.231834        0        
C_FG        C        0.076923        0.24074099999999998        0.231834        0.2        
C2        C        0.115385        0.296297        0.231834        0        
C3        C        0.076923        0.314815        0.231834        0        
C4        C        0.115385        0.259259        0.231834        0        
C1        C        0.076923        0.351852        0.231834        0        
C2        C        0.115385        0.407408        0.231834        0        
C3        C        0.076923        0.42592500000000005        0.231834        0        
C4        C        0.115385        0.37037        0.231834        0        
C_FG        C        0.076923        0.46296300000000007        0.231834        0.2        
C2        C        0.115385        0.518519        0.231834        0        
C3        C        0.076923        0.537037        0.231834        0        
C4        C        0.115385        0.481481        0.231834        0        
C1        C        0.076923        0.574075        0.231834        0        
C2        C        0.115385        0.62963        0.231834        0        
C3        C        0.076923        0.648148        0.231834        0        
C4        C        0.115385        0.592592        0.231834        0        
C1        C        0.153846        0.018519        0.231834        0        
C2        C        0.192308        0.074075        0.231834        0        
C3        C        0.153846        0.092592        0.231834        0        
C4        C        0.192308        0.037037        0.231834        0        
C1        C        0.153846        0.12963        0.231834        0        
C2        C        0.192308        0.185185        0.231834        0        
C3        C        0.153846        0.203703        0.231834        0        
C4        C        0.192308        0.148148        0.231834        0        
C1        C        0.153846        0.24074099999999998        0.231834        0        
C2        C        0.192308        0.296297        0.231834        0        
C3        C        0.153846        0.314815        0.231834        0        
C4        C        0.192308        0.259259        0.231834        0        
C1        C        0.153846        0.351852        0.231834        0        
C2        C        0.192308        0.407408        0.231834        0        
C3        C        0.153846        0.42592500000000005        0.231834        0        
C4        C        0.192308        0.37037        0.231834        0        
C1        C        0.153846        0.46296300000000007        0.231834        0        
C2        C        0.192308        0.518519        0.231834        0        
C3        C        0.153846        0.537037        0.231834        0        
C4        C        0.192308        0.481481        0.231834        0        
C1        C        0.153846        0.574075        0.231834        0        
C2        C        0.192308        0.62963        0.231834        0        
C3        C        0.153846        0.648148        0.231834        0        
C4        C        0.192308        0.592592        0.231834        0        
C_FG        C        0.230769        0.018519        0.231834        0.2        
C2        C        0.269231        0.074075        0.231834        0        
C3        C        0.230769        0.092592        0.231834        0        
C4        C        0.269231        0.037037        0.231834        0        
C1        C        0.230769        0.12963        0.231834        0        
C2        C        0.269231        0.185185        0.231834        0        
C3        C        0.230769        0.203703        0.231834        0        
C4        C        0.269231        0.148148        0.231834        0        
C_FG        C        0.230769        0.24074099999999998        0.231834        0.2        
C2        C        0.269231        0.296297        0.231834        0        
C3        C        0.230769        0.314815        0.231834        0        
C4        C        0.269231        0.259259        0.231834        0        
C1        C        0.230769        0.351852        0.231834        0        
C2        C        0.269231        0.407408        0.231834        0        
C3        C        0.230769        0.42592500000000005        0.231834        0        
C4        C        0.269231        0.37037        0.231834        0        
C_FG        C        0.230769        0.46296300000000007        0.231834        0.2        
C2        C        0.269231        0.518519        0.231834        0        
C3        C        0.230769        0.537037        0.231834        0        
C4        C        0.269231        0.481481        0.231834        0        
C1        C        0.230769        0.574075        0.231834        0        
C2        C        0.269231        0.62963        0.231834        0        
C3        C        0.230769        0.648148        0.231834        0        
C4        C        0.269231        0.592592        0.231834        0        
C1        C        0.307692        0.018519        0.231834        0        
C2        C        0.346154        0.074075        0.231834        0        
C3        C        0.307692        0.092592        0.231834        0        
C4        C        0.346154        0.037037        0.231834        0        
C1        C        0.307692        0.12963        0.231834        0        
C2        C        0.346154        0.185185        0.231834        0        
C3        C        0.307692        0.203703        0.231834        0        
C4        C        0.346154        0.148148        0.231834        0        
C1        C        0.307692        0.24074099999999998        0.231834        0        
C2        C        0.346154        0.296297        0.231834        0        
C3        C        0.307692        0.314815        0.231834        0        
C4        C        0.346154        0.259259        0.231834        0        
C1        C        0.307692        0.351852        0.231834        0        
C2        C        0.346154        0.407408        0.231834        0        
C3        C        0.307692        0.42592500000000005        0.231834        0        
C4        C        0.346154        0.37037        0.231834        0        
C1        C        0.307692        0.46296300000000007        0.231834        0        
C2        C        0.346154        0.518519        0.231834        0        
C3        C        0.307692        0.537037        0.231834        0        
C4        C        0.346154        0.481481        0.231834        0        
C1        C        0.307692        0.574075        0.231834        0        
C2        C        0.346154        0.62963        0.231834        0        
C3        C        0.307692        0.648148        0.231834        0        
C4        C        0.346154        0.592592        0.231834        0        
C1        C        0.384615        0.018519        0.231834        0        
C2        C        0.423077        0.074075        0.231834        0        
C3        C        0.384615        0.092592        0.231834        0        
C4        C        0.423077        0.037037        0.231834        0        
C1        C        0.384615        0.12963        0.231834        0        
C2        C        0.423077        0.185185        0.231834        0        
C3        C        0.384615        0.203703        0.231834        0        
C4        C        0.423077        0.148148        0.231834        0        
C1        C        0.384615        0.24074099999999998        0.231834        0        
C2        C        0.423077        0.296297        0.231834        0        
C3        C        0.384615        0.314815        0.231834        0        
C4        C        0.423077        0.259259        0.231834        0        
C1        C        0.384615        0.351852        0.231834        0        
C2        C        0.423077        0.407408        0.231834        0        
C3        C        0.384615        0.42592500000000005        0.231834        0        
C4        C        0.423077        0.37037        0.231834        0        
C1        C        0.384615        0.46296300000000007        0.231834        0        
C2        C        0.423077        0.518519        0.231834        0        
C3        C        0.384615        0.537037        0.231834        0        
C4        C        0.423077        0.481481        0.231834        0        
C1        C        0.384615        0.574075        0.231834        0        
C2        C        0.423077        0.62963        0.231834        0        
C3        C        0.384615        0.648148        0.231834        0        
C4        C        0.423077        0.592592        0.231834        0        
C1        C        0.461538        0.018519        0.231834        0        
C2        C        0.5        0.074075        0.231834        0        
C3        C        0.461538        0.092592        0.231834        0        
C4        C        0.5        0.037037        0.231834        0        
C1        C        0.461538        0.12963        0.231834        0        
C2        C        0.5        0.185185        0.231834        0        
C3        C        0.461538        0.203703        0.231834        0        
C4        C        0.5        0.148148        0.231834        0        
C1        C        0.461538        0.24074099999999998        0.231834        0        
C2        C        0.5        0.296297        0.231834        0        
C3        C        0.461538        0.314815        0.231834        0        
C4        C        0.5        0.259259        0.231834        0        
C1        C        0.461538        0.351852        0.231834        0        
C2        C        0.5        0.407408        0.231834        0        
C3        C        0.461538        0.42592500000000005        0.231834        0        
C4        C        0.5        0.37037        0.231834        0        
C1        C        0.461538        0.46296300000000007        0.231834        0        
C2        C        0.5        0.518519        0.231834        0        
C3        C        0.461538        0.537037        0.231834        0        
C4        C        0.5        0.481481        0.231834        0        
C1        C        0.461538        0.574075        0.231834        0        
C2        C        0.5        0.62963        0.231834        0        
C3        C        0.461538        0.648148        0.231834        0        
C4        C        0.5        0.592592        0.231834        0        
C1        C        0.538462        0.018519        0.231834        0        
C2        C        0.576923        0.074075        0.231834        0        
C3        C        0.538462        0.092592        0.231834        0        
C4        C        0.576923        0.037037        0.231834        0        
C1        C        0.538462        0.12963        0.231834        0        
C2        C        0.576923        0.185185        0.231834        0        
C3        C        0.538462        0.203703        0.231834        0        
C4        C        0.576923        0.148148        0.231834        0        
C1        C        0.538462        0.24074099999999998        0.231834        0        
C2        C        0.576923        0.296297        0.231834        0        
C3        C        0.538462        0.314815        0.231834        0        
C4        C        0.576923        0.259259        0.231834        0        
C1        C        0.538462        0.351852        0.231834        0        
C2        C        0.576923        0.407408        0.231834        0        
C3        C        0.538462        0.42592500000000005        0.231834        0        
C4        C        0.576923        0.37037        0.231834        0        
C1        C        0.538462        0.46296300000000007        0.231834        0        
C2        C        0.576923        0.518519        0.231834        0        
C3        C        0.538462        0.537037        0.231834        0        
C4        C        0.576923        0.481481        0.231834        0        
C1        C        0.538462        0.574075        0.231834        0        
C2        C        0.576923        0.62963        0.231834        0        
C3        C        0.538462        0.648148        0.231834        0        
C4        C        0.576923        0.592592        0.231834        0        
C1        C        0.615385        0.018519        0.231834        0        
C2        C        0.653846        0.074075        0.231834        0        
C3        C        0.615385        0.092592        0.231834        0        
C4        C        0.653846        0.037037        0.231834        0        
C1        C        0.615385        0.12963        0.231834        0        
C2        C        0.653846        0.185185        0.231834        0        
C3        C        0.615385        0.203703        0.231834        0        
C4        C        0.653846        0.148148        0.231834        0        
C1        C        0.615385        0.24074099999999998        0.231834        0        
C2        C        0.653846        0.296297        0.231834        0        
C3        C        0.615385        0.314815        0.231834        0        
C4        C        0.653846        0.259259        0.231834        0        
C1        C        0.615385        0.351852        0.231834        0        
C2        C        0.653846        0.407408        0.231834        0        
C3        C        0.615385        0.42592500000000005        0.231834        0        
C4        C        0.653846        0.37037        0.231834        0        
C1        C        0.615385        0.46296300000000007        0.231834        0        
C2        C        0.653846        0.518519        0.231834        0        
C3        C        0.615385        0.537037        0.231834        0        
C4        C        0.653846        0.481481        0.231834        0        
C1        C        0.615385        0.574075        0.231834        0        
C2        C        0.653846        0.62963        0.231834        0        
C3        C        0.615385        0.648148        0.231834        0        
C4        C        0.653846        0.592592        0.231834        0        
C1        C        0.692308        0.018519        0.231834        0        
C2        C        0.730769        0.074075        0.231834        0        
C3        C        0.692308        0.092592        0.231834        0        
C4        C        0.730769        0.037037        0.231834        0        
C1        C        0.692308        0.12963        0.231834        0        
C2        C        0.730769        0.185185        0.231834        0        
C3        C        0.692308        0.203703        0.231834        0        
C4        C        0.730769        0.148148        0.231834        0        
C1        C        0.692308        0.24074099999999998        0.231834        0        
C2        C        0.730769        0.296297        0.231834        0        
C3        C        0.692308        0.314815        0.231834        0        
C4        C        0.730769        0.259259        0.231834        0        
C1        C        0.692308        0.351852        0.231834        0        
C2        C        0.730769        0.407408        0.231834        0        
C3        C        0.692308        0.42592500000000005        0.231834        0        
C4        C        0.730769        0.37037        0.231834        0        
C1        C        0.692308        0.46296300000000007        0.231834        0        
C2        C        0.730769        0.518519        0.231834        0        
C3        C        0.692308        0.537037        0.231834        0        
C4        C        0.730769        0.481481        0.231834        0        
C1        C        0.692308        0.574075        0.231834        0        
C2        C        0.730769        0.62963        0.231834        0        
C3        C        0.692308        0.648148        0.231834        0        
C4        C        0.730769        0.592592        0.231834        0        
C1        C        0.769231        0.018519        0.231834        0        
C2        C        0.807692        0.074075        0.231834        0        
C3        C        0.769231        0.092592        0.231834        0        
C4        C        0.807692        0.037037        0.231834        0        
C1        C        0.769231        0.12963        0.231834        0        
C2        C        0.807692        0.185185        0.231834        0        
C3        C        0.769231        0.203703        0.231834        0        
C4        C        0.807692        0.148148        0.231834        0        
C1        C        0.769231        0.24074099999999998        0.231834        0        
C2        C        0.807692        0.296297        0.231834        0        
C3        C        0.769231        0.314815        0.231834        0        
C4        C        0.807692        0.259259        0.231834        0        
C1        C        0.769231        0.351852        0.231834        0        
C2        C        0.807692        0.407408        0.231834        0        
C3        C        0.769231        0.42592500000000005        0.231834        0        
C4        C        0.807692        0.37037        0.231834        0        
C1        C        0.769231        0.46296300000000007        0.231834        0        
C2        C        0.807692        0.518519        0.231834        0        
C3        C        0.769231        0.537037        0.231834        0        
C4        C        0.807692        0.481481        0.231834        0        
C1        C        0.769231        0.574075        0.231834        0        
C2        C        0.807692        0.62963        0.231834        0        
C3        C        0.769231        0.648148        0.231834        0        
C4        C        0.807692        0.592592        0.231834        0        
C_FG        C        0.846154        0.018519        0.231834        0.2        
C2        C        0.884615        0.074075        0.231834        0        
C3        C        0.846154        0.092592        0.231834        0        
C4        C        0.884615        0.037037        0.231834        0        
C1        C        0.846154        0.12963        0.231834        0        
C2        C        0.884615        0.185185        0.231834        0        
C3        C        0.846154        0.203703        0.231834        0        
C4        C        0.884615        0.148148        0.231834        0        
C_FG        C        0.846154        0.24074099999999998        0.231834        0.2        
C2        C        0.884615        0.296297        0.231834        0        
C3        C        0.846154        0.314815        0.231834        0        
C4        C        0.884615        0.259259        0.231834        0        
C1        C        0.846154        0.351852        0.231834        0        
C2        C        0.884615        0.407408        0.231834        0        
C3        C        0.846154        0.42592500000000005        0.231834        0        
C4        C        0.884615        0.37037        0.231834        0        
C_FG        C        0.846154        0.46296300000000007        0.231834        0.2        
C2        C        0.884615        0.518519        0.231834        0        
C3        C        0.846154        0.537037        0.231834        0        
C4        C        0.884615        0.481481        0.231834        0        
C1        C        0.846154        0.574075        0.231834        0        
C2        C        0.884615        0.62963        0.231834        0        
C3        C        0.846154        0.648148        0.231834        0        
C4        C        0.884615        0.592592        0.231834        0        
C1        C        0.923077        0.018519        0.231834        0        
C2        C        0.961538        0.074075        0.231834        0        
C3        C        0.923077        0.092592        0.231834        0        
C4        C        0.961538        0.037037        0.231834        0        
C1        C        0.923077        0.12963        0.231834        0        
C2        C        0.961538        0.185185        0.231834        0        
C3        C        0.923077        0.203703        0.231834        0        
C4        C        0.961538        0.148148        0.231834        0        
C1        C        0.923077        0.24074099999999998        0.231834        0        
C2        C        0.961538        0.296297        0.231834        0        
C3        C        0.923077        0.314815        0.231834        0        
C4        C        0.961538        0.259259        0.231834        0        
C1        C        0.923077        0.351852        0.231834        0        
C2        C        0.961538        0.407408        0.231834        0        
C3        C        0.923077        0.42592500000000005        0.231834        0        
C4        C        0.961538        0.37037        0.231834        0        
C1        C        0.923077        0.46296300000000007        0.231834        0        
C2        C        0.961538        0.518519        0.231834        0        
C3        C        0.923077        0.537037        0.231834        0        
C4        C        0.961538        0.481481        0.231834        0        
C1        C        0.923077        0.574075        0.231834        0        
C2        C        0.961538        0.62963        0.231834        0        
C3        C        0.923077        0.648148        0.231834        0        
C4        C        0.961538        0.592592        0.231834        0        
C_FG        C        1.0        0.018519        0.231834        0.2        
C2        C        1.038462        0.074075        0.231834        0        
C3        C        1.0        0.092592        0.231834        0        
C4        C        1.038462        0.037037        0.231834        0        
C1        C        1.0        0.12963        0.231834        0        
C2        C        1.038462        0.185185        0.231834        0        
C3        C        1.0        0.203703        0.231834        0        
C4        C        1.038462        0.148148        0.231834        0        
C_FG        C        1.0        0.24074099999999998        0.231834        0.2        
C2        C        1.038462        0.296297        0.231834        0        
C3        C        1.0        0.314815        0.231834        0        
C4        C        1.038462        0.259259        0.231834        0        
C1        C        1.0        0.351852        0.231834        0        
C2        C        1.038462        0.407408        0.231834        0        
C3        C        1.0        0.42592500000000005        0.231834        0        
C4        C        1.038462        0.37037        0.231834        0        
C_FG        C        1.0        0.46296300000000007        0.231834        0.2        
C2        C        1.038462        0.518519        0.231834        0        
C3        C        1.0        0.537037        0.231834        0        
C4        C        1.038462        0.481481        0.231834        0        
C1        C        1.0        0.574075        0.231834        0        
C2        C        1.038462        0.62963        0.231834        0        
C3        C        1.0        0.648148        0.231834        0        
C4        C        1.038462        0.592592        0.231834        0        
C1        C        0.0        0.685186        0.231834        0        
C_FG        C        0.076923        0.685186        0.231834        0.2        
C1        C        0.153846        0.685186        0.231834        0        
C_FG        C        0.230769        0.685186        0.231834        0.2        
C1        C        0.307692        0.685186        0.231834        0        
C1        C        0.384615        0.685186        0.231834        0        
C1        C        0.461538        0.685186        0.231834        0        
C1        C        0.538462        0.685186        0.231834        0        
C1        C        0.615385        0.685186        0.231834        0        
C1        C        0.692308        0.685186        0.231834        0        
C1        C        0.769231        0.685186        0.231834        0        
C_FG        C        0.846154        0.685186        0.231834        0.2        
C1        C        0.923077        0.685186        0.231834        0        
C_FG        C        1.0        0.685186        0.231834        0.2        
C2        C        0.038462        0.740741        0.231834        0        
C2        C        0.115385        0.740741        0.231834        0        
C2        C        0.192308        0.740741        0.231834        0        
C2        C        0.269231        0.740741        0.231834        0        
C2        C        0.346154        0.740741        0.231834        0        
C2        C        0.423077        0.740741        0.231834        0        
C2        C        0.5        0.740741        0.231834        0        
C2        C        0.576923        0.740741        0.231834        0        
C2        C        0.653846        0.740741        0.231834        0        
C2        C        0.730769        0.740741        0.231834        0        
C2        C        0.807692        0.740741        0.231834        0        
C2        C        0.884615        0.740741        0.231834        0        
C2        C        0.961538        0.740741        0.231834        0        
C2        C        1.038462        0.740741        0.231834        0        
C3        C        0.0        0.759259        0.231834        0        
C3        C        0.076923        0.759259        0.231834        0        
C3        C        0.153846        0.759259        0.231834        0        
C3        C        0.230769        0.759259        0.231834        0        
C3        C        0.307692        0.759259        0.231834        0        
C3        C        0.384615        0.759259        0.231834        0        
C3        C        0.461538        0.759259        0.231834        0        
C3        C        0.538462        0.759259        0.231834        0        
C3        C        0.615385        0.759259        0.231834        0        
C3        C        0.692308        0.759259        0.231834        0        
C3        C        0.769231        0.759259        0.231834        0        
C3        C        0.846154        0.759259        0.231834        0        
C3        C        0.923077        0.759259        0.231834        0        
C3        C        1.0        0.759259        0.231834        0        
C4        C        0.038462        0.703703        0.231834        0        
C4        C        0.115385        0.703703        0.231834        0        
C4        C        0.192308        0.703703        0.231834        0        
C4        C        0.269231        0.703703        0.231834        0        
C4        C        0.346154        0.703703        0.231834        0        
C4        C        0.423077        0.703703        0.231834        0        
C4        C        0.5        0.703703        0.231834        0        
C4        C        0.576923        0.703703        0.231834        0        
C4        C        0.653846        0.703703        0.231834        0        
C4        C        0.730769        0.703703        0.231834        0        
C4        C        0.807692        0.703703        0.231834        0        
C4        C        0.884615        0.703703        0.231834        0        
C4        C        0.961538        0.703703        0.231834        0        
C4        C        1.038462        0.703703        0.231834        0        
C1        C        0.0        0.796297        0.231834        0        
C1        C        0.076923        0.796297        0.231834        0        
C1        C        0.153846        0.796297        0.231834        0        
C1        C        0.230769        0.796297        0.231834        0        
C1        C        0.307692        0.796297        0.231834        0        
C1        C        0.384615        0.796297        0.231834        0        
C1        C        0.461538        0.796297        0.231834        0        
C1        C        0.538462        0.796297        0.231834        0        
C1        C        0.615385        0.796297        0.231834        0        
C1        C        0.692308        0.796297        0.231834        0        
C1        C        0.769231        0.796297        0.231834        0        
C1        C        0.846154        0.796297        0.231834        0        
C1        C        0.923077        0.796297        0.231834        0        
C1        C        1.0        0.796297        0.231834        0        
C2        C        0.038462        0.851852        0.231834        0        
C2        C        0.115385        0.851852        0.231834        0        
C2        C        0.192308        0.851852        0.231834        0        
C2        C        0.269231        0.851852        0.231834        0        
C2        C        0.346154        0.851852        0.231834        0        
C2        C        0.423077        0.851852        0.231834        0        
C2        C        0.5        0.851852        0.231834        0        
C2        C        0.576923        0.851852        0.231834        0        
C2        C        0.653846        0.851852        0.231834        0        
C2        C        0.730769        0.851852        0.231834        0        
C2        C        0.807692        0.851852        0.231834        0        
C2        C        0.884615        0.851852        0.231834        0        
C2        C        0.961538        0.851852        0.231834        0        
C2        C        1.038462        0.851852        0.231834        0        
C3        C        0.0        0.87037        0.231834        0        
C3        C        0.076923        0.87037        0.231834        0        
C3        C        0.153846        0.87037        0.231834        0        
C3        C        0.230769        0.87037        0.231834        0        
C3        C        0.307692        0.87037        0.231834        0        
C3        C        0.384615        0.87037        0.231834        0        
C3        C        0.461538        0.87037        0.231834        0        
C3        C        0.538462        0.87037        0.231834        0        
C3        C        0.615385        0.87037        0.231834        0        
C3        C        0.692308        0.87037        0.231834        0        
C3        C        0.769231        0.87037        0.231834        0        
C3        C        0.846154        0.87037        0.231834        0        
C3        C        0.923077        0.87037        0.231834        0        
C3        C        1.0        0.87037        0.231834        0        
C4        C        0.038462        0.814814        0.231834        0        
C4        C        0.115385        0.814814        0.231834        0        
C4        C        0.192308        0.814814        0.231834        0        
C4        C        0.269231        0.814814        0.231834        0        
C4        C        0.346154        0.814814        0.231834        0        
C4        C        0.423077        0.814814        0.231834        0        
C4        C        0.5        0.814814        0.231834        0        
C4        C        0.576923        0.814814        0.231834        0        
C4        C        0.653846        0.814814        0.231834        0        
C4        C        0.730769        0.814814        0.231834        0        
C4        C        0.807692        0.814814        0.231834        0        
C4        C        0.884615        0.814814        0.231834        0        
C4        C        0.961538        0.814814        0.231834        0        
C4        C        1.038462        0.814814        0.231834        0        
C1        C        0.0        0.907408        0.231834        0        
C_FG        C        0.076923        0.907408        0.231834        0.2        
C1        C        0.153846        0.907408        0.231834        0        
C_FG        C        0.230769        0.907408        0.231834        0.2        
C1        C        0.307692        0.907408        0.231834        0        
C1        C        0.384615        0.907408        0.231834        0        
C1        C        0.461538        0.907408        0.231834        0        
C1        C        0.538462        0.907408        0.231834        0        
C1        C        0.615385        0.907408        0.231834        0        
C1        C        0.692308        0.907408        0.231834        0        
C1        C        0.769231        0.907408        0.231834        0        
C_FG        C        0.846154        0.907408        0.231834        0.2        
C1        C        0.923077        0.907408        0.231834        0        
C_FG        C        1.0        0.907408        0.231834        0.2        
C2        C        0.038462        0.962963        0.231834        0        
C2        C        0.115385        0.962963        0.231834        0        
C2        C        0.192308        0.962963        0.231834        0        
C2        C        0.269231        0.962963        0.231834        0        
C2        C        0.346154        0.962963        0.231834        0        
C2        C        0.423077        0.962963        0.231834        0        
C2        C        0.5        0.962963        0.231834        0        
C2        C        0.576923        0.962963        0.231834        0        
C2        C        0.653846        0.962963        0.231834        0        
C2        C        0.730769        0.962963        0.231834        0        
C2        C        0.807692        0.962963        0.231834        0        
C2        C        0.884615        0.962963        0.231834        0        
C2        C        0.961538        0.962963        0.231834        0        
C2        C        1.038462        0.962963        0.231834        0        
C3        C        0.0        0.9814809999999999        0.231834        0        
C3        C        0.076923        0.9814809999999999        0.231834        0        
C3        C        0.153846        0.9814809999999999        0.231834        0        
C3        C        0.230769        0.9814809999999999        0.231834        0        
C3        C        0.307692        0.9814809999999999        0.231834        0        
C3        C        0.384615        0.9814809999999999        0.231834        0        
C3        C        0.461538        0.9814809999999999        0.231834        0        
C3        C        0.538462        0.9814809999999999        0.231834        0        
C3        C        0.615385        0.9814809999999999        0.231834        0        
C3        C        0.692308        0.9814809999999999        0.231834        0        
C3        C        0.769231        0.9814809999999999        0.231834        0        
C3        C        0.846154        0.9814809999999999        0.231834        0        
C3        C        0.923077        0.9814809999999999        0.231834        0        
C3        C        1.0        0.9814809999999999        0.231834        0        
C4        C        0.038462        0.925925        0.231834        0        
C4        C        0.115385        0.925925        0.231834        0        
C4        C        0.192308        0.925925        0.231834        0        
C4        C        0.269231        0.925925        0.231834        0        
C4        C        0.346154        0.925925        0.231834        0        
C4        C        0.423077        0.925925        0.231834        0        
C4        C        0.5        0.925925        0.231834        0        
C4        C        0.576923        0.925925        0.231834        0        
C4        C        0.653846        0.925925        0.231834        0        
C4        C        0.730769        0.925925        0.231834        0        
C4        C        0.807692        0.925925        0.231834        0        
C4        C        0.884615        0.925925        0.231834        0        
C4        C        0.961538        0.925925        0.231834        0        
C4        C        1.038462        0.925925        0.231834        0        
C1        C        0.0        0.018519        0.768166        0        
C2        C        0.038462        0.074075        0.768166        0        
C3        C        0.0        0.092592        0.768166        0        
C4        C        0.038462        0.037037        0.768166        0        
C1        C        0.0        0.12963        0.768166        0        
C2        C        0.038462        0.185185        0.768166        0        
C3        C        0.0        0.203703        0.768166        0        
C4        C        0.038462        0.148148        0.768166        0        
C1        C        0.0        0.24074099999999998        0.768166        0        
C2        C        0.038462        0.296297        0.768166        0        
C3        C        0.0        0.314815        0.768166        0        
C4        C        0.038462        0.259259        0.768166        0        
C1        C        0.0        0.351852        0.768166        0        
C2        C        0.038462        0.407408        0.768166        0        
C3        C        0.0        0.42592500000000005        0.768166        0        
C4        C        0.038462        0.37037        0.768166        0        
C1        C        0.0        0.46296300000000007        0.768166        0        
C2        C        0.038462        0.518519        0.768166        0        
C3        C        0.0        0.537037        0.768166        0        
C4        C        0.038462        0.481481        0.768166        0        
C1        C        0.0        0.574075        0.768166        0        
C2        C        0.038462        0.62963        0.768166        0        
C3        C        0.0        0.648148        0.768166        0        
C4        C        0.038462        0.592592        0.768166        0        
C_FG        C        0.076923        0.018519        0.768166        0.2        
C2        C        0.115385        0.074075        0.768166        0        
C3        C        0.076923        0.092592        0.768166        0        
C4        C        0.115385        0.037037        0.768166        0        
C1        C        0.076923        0.12963        0.768166        0        
C2        C        0.115385        0.185185        0.768166        0        
C3        C        0.076923        0.203703        0.768166        0        
C4        C        0.115385        0.148148        0.768166        0        
C_FG        C        0.076923        0.24074099999999998        0.768166        0.2        
C2        C        0.115385        0.296297        0.768166        0        
C3        C        0.076923        0.314815        0.768166        0        
C4        C        0.115385        0.259259        0.768166        0        
C1        C        0.076923        0.351852        0.768166        0        
C2        C        0.115385        0.407408        0.768166        0        
C3        C        0.076923        0.42592500000000005        0.768166        0        
C4        C        0.115385        0.37037        0.768166        0        
C_FG        C        0.076923        0.46296300000000007        0.768166        0.2        
C2        C        0.115385        0.518519        0.768166        0        
C3        C        0.076923        0.537037        0.768166        0        
C4        C        0.115385        0.481481        0.768166        0        
C1        C        0.076923        0.574075        0.768166        0        
C2        C        0.115385        0.62963        0.768166        0        
C3        C        0.076923        0.648148        0.768166        0        
C4        C        0.115385        0.592592        0.768166        0        
C1        C        0.153846        0.018519        0.768166        0        
C2        C        0.192308        0.074075        0.768166        0        
C3        C        0.153846        0.092592        0.768166        0        
C4        C        0.192308        0.037037        0.768166        0        
C1        C        0.153846        0.12963        0.768166        0        
C2        C        0.192308        0.185185        0.768166        0        
C3        C        0.153846        0.203703        0.768166        0        
C4        C        0.192308        0.148148        0.768166        0        
C1        C        0.153846        0.24074099999999998        0.768166        0        
C2        C        0.192308        0.296297        0.768166        0        
C3        C        0.153846        0.314815        0.768166        0        
C4        C        0.192308        0.259259        0.768166        0        
C1        C        0.153846        0.351852        0.768166        0        
C2        C        0.192308        0.407408        0.768166        0        
C3        C        0.153846        0.42592500000000005        0.768166        0        
C4        C        0.192308        0.37037        0.768166        0        
C1        C        0.153846        0.46296300000000007        0.768166        0        
C2        C        0.192308        0.518519        0.768166        0        
C3        C        0.153846        0.537037        0.768166        0        
C4        C        0.192308        0.481481        0.768166        0        
C1        C        0.153846        0.574075        0.768166        0        
C2        C        0.192308        0.62963        0.768166        0        
C3        C        0.153846        0.648148        0.768166        0        
C4        C        0.192308        0.592592        0.768166        0        
C_FG        C        0.230769        0.018519        0.768166        0.2        
C2        C        0.269231        0.074075        0.768166        0        
C3        C        0.230769        0.092592        0.768166        0        
C4        C        0.269231        0.037037        0.768166        0        
C1        C        0.230769        0.12963        0.768166        0        
C2        C        0.269231        0.185185        0.768166        0        
C3        C        0.230769        0.203703        0.768166        0        
C4        C        0.269231        0.148148        0.768166        0        
C_FG        C        0.230769        0.24074099999999998        0.768166        0.2        
C2        C        0.269231        0.296297        0.768166        0        
C3        C        0.230769        0.314815        0.768166        0        
C4        C        0.269231        0.259259        0.768166        0        
C1        C        0.230769        0.351852        0.768166        0        
C2        C        0.269231        0.407408        0.768166        0        
C3        C        0.230769        0.42592500000000005        0.768166        0        
C4        C        0.269231        0.37037        0.768166        0        
C_FG        C        0.230769        0.46296300000000007        0.768166        0.2        
C2        C        0.269231        0.518519        0.768166        0        
C3        C        0.230769        0.537037        0.768166        0        
C4        C        0.269231        0.481481        0.768166        0        
C1        C        0.230769        0.574075        0.768166        0        
C2        C        0.269231        0.62963        0.768166        0        
C3        C        0.230769        0.648148        0.768166        0        
C4        C        0.269231        0.592592        0.768166        0        
C1        C        0.307692        0.018519        0.768166        0        
C2        C        0.346154        0.074075        0.768166        0        
C3        C        0.307692        0.092592        0.768166        0        
C4        C        0.346154        0.037037        0.768166        0        
C1        C        0.307692        0.12963        0.768166        0        
C2        C        0.346154        0.185185        0.768166        0        
C3        C        0.307692        0.203703        0.768166        0        
C4        C        0.346154        0.148148        0.768166        0        
C1        C        0.307692        0.24074099999999998        0.768166        0        
C2        C        0.346154        0.296297        0.768166        0        
C3        C        0.307692        0.314815        0.768166        0        
C4        C        0.346154        0.259259        0.768166        0        
C1        C        0.307692        0.351852        0.768166        0        
C2        C        0.346154        0.407408        0.768166        0        
C3        C        0.307692        0.42592500000000005        0.768166        0        
C4        C        0.346154        0.37037        0.768166        0        
C1        C        0.307692        0.46296300000000007        0.768166        0        
C2        C        0.346154        0.518519        0.768166        0        
C3        C        0.307692        0.537037        0.768166        0        
C4        C        0.346154        0.481481        0.768166        0        
C1        C        0.307692        0.574075        0.768166        0        
C2        C        0.346154        0.62963        0.768166        0        
C3        C        0.307692        0.648148        0.768166        0        
C4        C        0.346154        0.592592        0.768166        0        
C1        C        0.384615        0.018519        0.768166        0        
C2        C        0.423077        0.074075        0.768166        0        
C3        C        0.384615        0.092592        0.768166        0        
C4        C        0.423077        0.037037        0.768166        0        
C1        C        0.384615        0.12963        0.768166        0        
C2        C        0.423077        0.185185        0.768166        0        
C3        C        0.384615        0.203703        0.768166        0        
C4        C        0.423077        0.148148        0.768166        0        
C1        C        0.384615        0.24074099999999998        0.768166        0        
C2        C        0.423077        0.296297        0.768166        0        
C3        C        0.384615        0.314815        0.768166        0        
C4        C        0.423077        0.259259        0.768166        0        
C1        C        0.384615        0.351852        0.768166        0        
C2        C        0.423077        0.407408        0.768166        0        
C3        C        0.384615        0.42592500000000005        0.768166        0        
C4        C        0.423077        0.37037        0.768166        0        
C1        C        0.384615        0.46296300000000007        0.768166        0        
C2        C        0.423077        0.518519        0.768166        0        
C3        C        0.384615        0.537037        0.768166        0        
C4        C        0.423077        0.481481        0.768166        0        
C1        C        0.384615        0.574075        0.768166        0        
C2        C        0.423077        0.62963        0.768166        0        
C3        C        0.384615        0.648148        0.768166        0        
C4        C        0.423077        0.592592        0.768166        0        
C1        C        0.461538        0.018519        0.768166        0        
C2        C        0.5        0.074075        0.768166        0        
C3        C        0.461538        0.092592        0.768166        0        
C4        C        0.5        0.037037        0.768166        0        
C1        C        0.461538        0.12963        0.768166        0        
C2        C        0.5        0.185185        0.768166        0        
C3        C        0.461538        0.203703        0.768166        0        
C4        C        0.5        0.148148        0.768166        0        
C1        C        0.461538        0.24074099999999998        0.768166        0        
C2        C        0.5        0.296297        0.768166        0        
C3        C        0.461538        0.314815        0.768166        0        
C4        C        0.5        0.259259        0.768166        0        
C1        C        0.461538        0.351852        0.768166        0        
C2        C        0.5        0.407408        0.768166        0        
C3        C        0.461538        0.42592500000000005        0.768166        0        
C4        C        0.5        0.37037        0.768166        0        
C1        C        0.461538        0.46296300000000007        0.768166        0        
C2        C        0.5        0.518519        0.768166        0        
C3        C        0.461538        0.537037        0.768166        0        
C4        C        0.5        0.481481        0.768166        0        
C1        C        0.461538        0.574075        0.768166        0        
C2        C        0.5        0.62963        0.768166        0        
C3        C        0.461538        0.648148        0.768166        0        
C4        C        0.5        0.592592        0.768166        0        
C1        C        0.538462        0.018519        0.768166        0        
C2        C        0.576923        0.074075        0.768166        0        
C3        C        0.538462        0.092592        0.768166        0        
C4        C        0.576923        0.037037        0.768166        0        
C1        C        0.538462        0.12963        0.768166        0        
C2        C        0.576923        0.185185        0.768166        0        
C3        C        0.538462        0.203703        0.768166        0        
C4        C        0.576923        0.148148        0.768166        0        
C1        C        0.538462        0.24074099999999998        0.768166        0        
C2        C        0.576923        0.296297        0.768166        0        
C3        C        0.538462        0.314815        0.768166        0        
C4        C        0.576923        0.259259        0.768166        0        
C1        C        0.538462        0.351852        0.768166        0        
C2        C        0.576923        0.407408        0.768166        0        
C3        C        0.538462        0.42592500000000005        0.768166        0        
C4        C        0.576923        0.37037        0.768166        0        
C1        C        0.538462        0.46296300000000007        0.768166        0        
C2        C        0.576923        0.518519        0.768166        0        
C3        C        0.538462        0.537037        0.768166        0        
C4        C        0.576923        0.481481        0.768166        0        
C1        C        0.538462        0.574075        0.768166        0        
C2        C        0.576923        0.62963        0.768166        0        
C3        C        0.538462        0.648148        0.768166        0        
C4        C        0.576923        0.592592        0.768166        0        
C1        C        0.615385        0.018519        0.768166        0        
C2        C        0.653846        0.074075        0.768166        0        
C3        C        0.615385        0.092592        0.768166        0        
C4        C        0.653846        0.037037        0.768166        0        
C1        C        0.615385        0.12963        0.768166        0        
C2        C        0.653846        0.185185        0.768166        0        
C3        C        0.615385        0.203703        0.768166        0        
C4        C        0.653846        0.148148        0.768166        0        
C1        C        0.615385        0.24074099999999998        0.768166        0        
C2        C        0.653846        0.296297        0.768166        0        
C3        C        0.615385        0.314815        0.768166        0        
C4        C        0.653846        0.259259        0.768166        0        
C1        C        0.615385        0.351852        0.768166        0        
C2        C        0.653846        0.407408        0.768166        0        
C3        C        0.615385        0.42592500000000005        0.768166        0        
C4        C        0.653846        0.37037        0.768166        0        
C1        C        0.615385        0.46296300000000007        0.768166        0        
C2        C        0.653846        0.518519        0.768166        0        
C3        C        0.615385        0.537037        0.768166        0        
C4        C        0.653846        0.481481        0.768166        0        
C1        C        0.615385        0.574075        0.768166        0        
C2        C        0.653846        0.62963        0.768166        0        
C3        C        0.615385        0.648148        0.768166        0        
C4        C        0.653846        0.592592        0.768166        0        
C1        C        0.692308        0.018519        0.768166        0        
C2        C        0.730769        0.074075        0.768166        0        
C3        C        0.692308        0.092592        0.768166        0        
C4        C        0.730769        0.037037        0.768166        0        
C1        C        0.692308        0.12963        0.768166        0        
C2        C        0.730769        0.185185        0.768166        0        
C3        C        0.692308        0.203703        0.768166        0        
C4        C        0.730769        0.148148        0.768166        0        
C1        C        0.692308        0.24074099999999998        0.768166        0        
C2        C        0.730769        0.296297        0.768166        0        
C3        C        0.692308        0.314815        0.768166        0        
C4        C        0.730769        0.259259        0.768166        0        
C1        C        0.692308        0.351852        0.768166        0        
C2        C        0.730769        0.407408        0.768166        0        
C3        C        0.692308        0.42592500000000005        0.768166        0        
C4        C        0.730769        0.37037        0.768166        0        
C1        C        0.692308        0.46296300000000007        0.768166        0        
C2        C        0.730769        0.518519        0.768166        0        
C3        C        0.692308        0.537037        0.768166        0        
C4        C        0.730769        0.481481        0.768166        0        
C1        C        0.692308        0.574075        0.768166        0        
C2        C        0.730769        0.62963        0.768166        0        
C3        C        0.692308        0.648148        0.768166        0        
C4        C        0.730769        0.592592        0.768166        0        
C1        C        0.769231        0.018519        0.768166        0        
C2        C        0.807692        0.074075        0.768166        0        
C3        C        0.769231        0.092592        0.768166        0        
C4        C        0.807692        0.037037        0.768166        0        
C1        C        0.769231        0.12963        0.768166        0        
C2        C        0.807692        0.185185        0.768166        0        
C3        C        0.769231        0.203703        0.768166        0        
C4        C        0.807692        0.148148        0.768166        0        
C1        C        0.769231        0.24074099999999998        0.768166        0        
C2        C        0.807692        0.296297        0.768166        0        
C3        C        0.769231        0.314815        0.768166        0        
C4        C        0.807692        0.259259        0.768166        0        
C1        C        0.769231        0.351852        0.768166        0        
C2        C        0.807692        0.407408        0.768166        0        
C3        C        0.769231        0.42592500000000005        0.768166        0        
C4        C        0.807692        0.37037        0.768166        0        
C1        C        0.769231        0.46296300000000007        0.768166        0        
C2        C        0.807692        0.518519        0.768166        0        
C3        C        0.769231        0.537037        0.768166        0        
C4        C        0.807692        0.481481        0.768166        0        
C1        C        0.769231        0.574075        0.768166        0        
C2        C        0.807692        0.62963        0.768166        0        
C3        C        0.769231        0.648148        0.768166        0        
C4        C        0.807692        0.592592        0.768166        0        
C_FG        C        0.846154        0.018519        0.768166        0.2        
C2        C        0.884615        0.074075        0.768166        0        
C3        C        0.846154        0.092592        0.768166        0        
C4        C        0.884615        0.037037        0.768166        0        
C1        C        0.846154        0.12963        0.768166        0        
C2        C        0.884615        0.185185        0.768166        0        
C3        C        0.846154        0.203703        0.768166        0        
C4        C        0.884615        0.148148        0.768166        0        
C_FG        C        0.846154        0.24074099999999998        0.768166        0.2        
C2        C        0.884615        0.296297        0.768166        0        
C3        C        0.846154        0.314815        0.768166        0        
C4        C        0.884615        0.259259        0.768166        0        
C1        C        0.846154        0.351852        0.768166        0        
C2        C        0.884615        0.407408        0.768166        0        
C3        C        0.846154        0.42592500000000005        0.768166        0        
C4        C        0.884615        0.37037        0.768166        0        
C_FG        C        0.846154        0.46296300000000007        0.768166        0.2        
C2        C        0.884615        0.518519        0.768166        0        
C3        C        0.846154        0.537037        0.768166        0        
C4        C        0.884615        0.481481        0.768166        0        
C1        C        0.846154        0.574075        0.768166        0        
C2        C        0.884615        0.62963        0.768166        0        
C3        C        0.846154        0.648148        0.768166        0        
C4        C        0.884615        0.592592        0.768166        0        
C1        C        0.923077        0.018519        0.768166        0        
C2        C        0.961538        0.074075        0.768166        0        
C3        C        0.923077        0.092592        0.768166        0        
C4        C        0.961538        0.037037        0.768166        0        
C1        C        0.923077        0.12963        0.768166        0        
C2        C        0.961538        0.185185        0.768166        0        
C3        C        0.923077        0.203703        0.768166        0        
C4        C        0.961538        0.148148        0.768166        0        
C1        C        0.923077        0.24074099999999998        0.768166        0        
C2        C        0.961538        0.296297        0.768166        0        
C3        C        0.923077        0.314815        0.768166        0        
C4        C        0.961538        0.259259        0.768166        0        
C1        C        0.923077        0.351852        0.768166        0        
C2        C        0.961538        0.407408        0.768166        0        
C3        C        0.923077        0.42592500000000005        0.768166        0        
C4        C        0.961538        0.37037        0.768166        0        
C1        C        0.923077        0.46296300000000007        0.768166        0        
C2        C        0.961538        0.518519        0.768166        0        
C3        C        0.923077        0.537037        0.768166        0        
C4        C        0.961538        0.481481        0.768166        0        
C1        C        0.923077        0.574075        0.768166        0        
C2        C        0.961538        0.62963        0.768166        0        
C3        C        0.923077        0.648148        0.768166        0        
C4        C        0.961538        0.592592        0.768166        0        
C_FG        C        1.0        0.018519        0.768166        0.2        
C2        C        1.038462        0.074075        0.768166        0        
C3        C        1.0        0.092592        0.768166        0        
C4        C        1.038462        0.037037        0.768166        0        
C1        C        1.0        0.12963        0.768166        0        
C2        C        1.038462        0.185185        0.768166        0        
C3        C        1.0        0.203703        0.768166        0        
C4        C        1.038462        0.148148        0.768166        0        
C_FG        C        1.0        0.24074099999999998        0.768166        0.2        
C2        C        1.038462        0.296297        0.768166        0        
C3        C        1.0        0.314815        0.768166        0        
C4        C        1.038462        0.259259        0.768166        0        
C1        C        1.0        0.351852        0.768166        0        
C2        C        1.038462        0.407408        0.768166        0        
C3        C        1.0        0.42592500000000005        0.768166        0        
C4        C        1.038462        0.37037        0.768166        0        
C_FG        C        1.0        0.46296300000000007        0.768166        0.2        
C2        C        1.038462        0.518519        0.768166        0        
C3        C        1.0        0.537037        0.768166        0        
C4        C        1.038462        0.481481        0.768166        0        
C1        C        1.0        0.574075        0.768166        0        
C2        C        1.038462        0.62963        0.768166        0        
C3        C        1.0        0.648148        0.768166        0        
C4        C        1.038462        0.592592        0.768166        0        
C1        C        0.0        0.685186        0.768166        0        
C_FG        C        0.076923        0.685186        0.768166        0.2        
C1        C        0.153846        0.685186        0.768166        0        
C_FG        C        0.230769        0.685186        0.768166        0.2        
C1        C        0.307692        0.685186        0.768166        0        
C1        C        0.384615        0.685186        0.768166        0        
C1        C        0.461538        0.685186        0.768166        0        
C1        C        0.538462        0.685186        0.768166        0        
C1        C        0.615385        0.685186        0.768166        0        
C1        C        0.692308        0.685186        0.768166        0        
C1        C        0.769231        0.685186        0.768166        0        
C_FG        C        0.846154        0.685186        0.768166        0.2        
C1        C        0.923077        0.685186        0.768166        0        
C_FG        C        1.0        0.685186        0.768166        0.2        
C2        C        0.038462        0.740741        0.768166        0        
C2        C        0.115385        0.740741        0.768166        0        
C2        C        0.192308        0.740741        0.768166        0        
C2        C        0.269231        0.740741        0.768166        0        
C2        C        0.346154        0.740741        0.768166        0        
C2        C        0.423077        0.740741        0.768166        0        
C2        C        0.5        0.740741        0.768166        0        
C2        C        0.576923        0.740741        0.768166        0        
C2        C        0.653846        0.740741        0.768166        0        
C2        C        0.730769        0.740741        0.768166        0        
C2        C        0.807692        0.740741        0.768166        0        
C2        C        0.884615        0.740741        0.768166        0        
C2        C        0.961538        0.740741        0.768166        0        
C2        C        1.038462        0.740741        0.768166        0        
C3        C        0.0        0.759259        0.768166        0        
C3        C        0.076923        0.759259        0.768166        0        
C3        C        0.153846        0.759259        0.768166        0        
C3        C        0.230769        0.759259        0.768166        0        
C3        C        0.307692        0.759259        0.768166        0        
C3        C        0.384615        0.759259        0.768166        0        
C3        C        0.461538        0.759259        0.768166        0        
C3        C        0.538462        0.759259        0.768166        0        
C3        C        0.615385        0.759259        0.768166        0        
C3        C        0.692308        0.759259        0.768166        0        
C3        C        0.769231        0.759259        0.768166        0        
C3        C        0.846154        0.759259        0.768166        0        
C3        C        0.923077        0.759259        0.768166        0        
C3        C        1.0        0.759259        0.768166        0        
C4        C        0.038462        0.703703        0.768166        0        
C4        C        0.115385        0.703703        0.768166        0        
C4        C        0.192308        0.703703        0.768166        0        
C4        C        0.269231        0.703703        0.768166        0        
C4        C        0.346154        0.703703        0.768166        0        
C4        C        0.423077        0.703703        0.768166        0        
C4        C        0.5        0.703703        0.768166        0        
C4        C        0.576923        0.703703        0.768166        0        
C4        C        0.653846        0.703703        0.768166        0        
C4        C        0.730769        0.703703        0.768166        0        
C4        C        0.807692        0.703703        0.768166        0        
C4        C        0.884615        0.703703        0.768166        0        
C4        C        0.961538        0.703703        0.768166        0        
C4        C        1.038462        0.703703        0.768166        0        
C1        C        0.0        0.796297        0.768166        0        
C1        C        0.076923        0.796297        0.768166        0        
C1        C        0.153846        0.796297        0.768166        0        
C1        C        0.230769        0.796297        0.768166        0        
C1        C        0.307692        0.796297        0.768166        0        
C1        C        0.384615        0.796297        0.768166        0        
C1        C        0.461538        0.796297        0.768166        0        
C1        C        0.538462        0.796297        0.768166        0        
C1        C        0.615385        0.796297        0.768166        0        
C1        C        0.692308        0.796297        0.768166        0        
C1        C        0.769231        0.796297        0.768166        0        
C1        C        0.846154        0.796297        0.768166        0        
C1        C        0.923077        0.796297        0.768166        0        
C1        C        1.0        0.796297        0.768166        0        
C2        C        0.038462        0.851852        0.768166        0        
C2        C        0.115385        0.851852        0.768166        0        
C2        C        0.192308        0.851852        0.768166        0        
C2        C        0.269231        0.851852        0.768166        0        
C2        C        0.346154        0.851852        0.768166        0        
C2        C        0.423077        0.851852        0.768166        0        
C2        C        0.5        0.851852        0.768166        0        
C2        C        0.576923        0.851852        0.768166        0        
C2        C        0.653846        0.851852        0.768166        0        
C2        C        0.730769        0.851852        0.768166        0        
C2        C        0.807692        0.851852        0.768166        0        
C2        C        0.884615        0.851852        0.768166        0        
C2        C        0.961538        0.851852        0.768166        0        
C2        C        1.038462        0.851852        0.768166        0        
C3        C        0.0        0.87037        0.768166        0        
C3        C        0.076923        0.87037        0.768166        0        
C3        C        0.153846        0.87037        0.768166        0        
C3        C        0.230769        0.87037        0.768166        0        
C3        C        0.307692        0.87037        0.768166        0        
C3        C        0.384615        0.87037        0.768166        0        
C3        C        0.461538        0.87037        0.768166        0        
C3        C        0.538462        0.87037        0.768166        0        
C3        C        0.615385        0.87037        0.768166        0        
C3        C        0.692308        0.87037        0.768166        0        
C3        C        0.769231        0.87037        0.768166        0        
C3        C        0.846154        0.87037        0.768166        0        
C3        C        0.923077        0.87037        0.768166        0        
C3        C        1.0        0.87037        0.768166        0        
C4        C        0.038462        0.814814        0.768166        0        
C4        C        0.115385        0.814814        0.768166        0        
C4        C        0.192308        0.814814        0.768166        0        
C4        C        0.269231        0.814814        0.768166        0        
C4        C        0.346154        0.814814        0.768166        0        
C4        C        0.423077        0.814814        0.768166        0        
C4        C        0.5        0.814814        0.768166        0        
C4        C        0.576923        0.814814        0.768166        0        
C4        C        0.653846        0.814814        0.768166        0        
C4        C        0.730769        0.814814        0.768166        0        
C4        C        0.807692        0.814814        0.768166        0        
C4        C        0.884615        0.814814        0.768166        0        
C4        C        0.961538        0.814814        0.768166        0        
C4        C        1.038462        0.814814        0.768166        0        
C1        C        0.0        0.907408        0.768166        0        
C_FG        C        0.076923        0.907408        0.768166        0.2        
C1        C        0.153846        0.907408        0.768166        0        
C_FG        C        0.230769        0.907408        0.768166        0.2        
C1        C        0.307692        0.907408        0.768166        0        
C1        C        0.384615        0.907408        0.768166        0        
C1        C        0.461538        0.907408        0.768166        0        
C1        C        0.538462        0.907408        0.768166        0        
C1        C        0.615385        0.907408        0.768166        0        
C1        C        0.692308        0.907408        0.768166        0        
C1        C        0.769231        0.907408        0.768166        0        
C_FG        C        0.846154        0.907408        0.768166        0.2        
C1        C        0.923077        0.907408        0.768166        0        
C_FG        C        1.0        0.907408        0.768166        0.2        
C2        C        0.038462        0.962963        0.768166        0        
C2        C        0.115385        0.962963        0.768166        0        
C2        C        0.192308        0.962963        0.768166        0        
C2        C        0.269231        0.962963        0.768166        0        
C2        C        0.346154        0.962963        0.768166        0        
C2        C        0.423077        0.962963        0.768166        0        
C2        C        0.5        0.962963        0.768166        0        
C2        C        0.576923        0.962963        0.768166        0        
C2        C        0.653846        0.962963        0.768166        0        
C2        C        0.730769        0.962963        0.768166        0        
C2        C        0.807692        0.962963        0.768166        0        
C2        C        0.884615        0.962963        0.768166        0        
C2        C        0.961538        0.962963        0.768166        0        
C2        C        1.038462        0.962963        0.768166        0        
C3        C        0.0        0.9814809999999999        0.768166        0        
C3        C        0.076923        0.9814809999999999        0.768166        0        
C3        C        0.153846        0.9814809999999999        0.768166        0        
C3        C        0.230769        0.9814809999999999        0.768166        0        
C3        C        0.307692        0.9814809999999999        0.768166        0        
C3        C        0.384615        0.9814809999999999        0.768166        0        
C3        C        0.461538        0.9814809999999999        0.768166        0        
C3        C        0.538462        0.9814809999999999        0.768166        0        
C3        C        0.615385        0.9814809999999999        0.768166        0        
C3        C        0.692308        0.9814809999999999        0.768166        0        
C3        C        0.769231        0.9814809999999999        0.768166        0        
C3        C        0.846154        0.9814809999999999        0.768166        0        
C3        C        0.923077        0.9814809999999999        0.768166        0        
C3        C        1.0        0.9814809999999999        0.768166        0        
C4        C        0.038462        0.925925        0.768166        0        
C4        C        0.115385        0.925925        0.768166        0        
C4        C        0.192308        0.925925        0.768166        0        
C4        C        0.269231        0.925925        0.768166        0        
C4        C        0.346154        0.925925        0.768166        0        
C4        C        0.423077        0.925925        0.768166        0        
C4        C        0.5        0.925925        0.768166        0        
C4        C        0.576923        0.925925        0.768166        0        
C4        C        0.653846        0.925925        0.768166        0        
C4        C        0.730769        0.925925        0.768166        0        
C4        C        0.807692        0.925925        0.768166        0        
C4        C        0.884615        0.925925        0.768166        0        
C4        C        0.961538        0.925925        0.768166        0        
C4        C        1.038462        0.925925        0.768166        0        
C1        C        0.0        0.018519        0.884083        0        
C2        C        0.038462        0.074075        0.884083        0        
C3        C        0.0        0.092592        0.884083        0        
C4        C        0.038462        0.037037        0.884083        0        
C1        C        0.0        0.12963        0.884083        0        
C2        C        0.038462        0.185185        0.884083        0        
C3        C        0.0        0.203703        0.884083        0        
C4        C        0.038462        0.148148        0.884083        0        
C1        C        0.0        0.24074099999999998        0.884083        0        
C2        C        0.038462        0.296297        0.884083        0        
C3        C        0.0        0.314815        0.884083        0        
C4        C        0.038462        0.259259        0.884083        0        
C1        C        0.0        0.351852        0.884083        0        
C2        C        0.038462        0.407408        0.884083        0        
C3        C        0.0        0.42592500000000005        0.884083        0        
C4        C        0.038462        0.37037        0.884083        0        
C1        C        0.0        0.46296300000000007        0.884083        0        
C2        C        0.038462        0.518519        0.884083        0        
C3        C        0.0        0.537037        0.884083        0        
C4        C        0.038462        0.481481        0.884083        0        
C1        C        0.0        0.574075        0.884083        0        
C2        C        0.038462        0.62963        0.884083        0        
C3        C        0.0        0.648148        0.884083        0        
C4        C        0.038462        0.592592        0.884083        0        
C1        C        0.076923        0.018519        0.884083        0        
C2        C        0.115385        0.074075        0.884083        0        
C3        C        0.076923        0.092592        0.884083        0        
C4        C        0.115385        0.037037        0.884083        0        
C1        C        0.076923        0.12963        0.884083        0        
C2        C        0.115385        0.185185        0.884083        0        
C3        C        0.076923        0.203703        0.884083        0        
C4        C        0.115385        0.148148        0.884083        0        
C1        C        0.076923        0.24074099999999998        0.884083        0        
C2        C        0.115385        0.296297        0.884083        0        
C3        C        0.076923        0.314815        0.884083        0        
C4        C        0.115385        0.259259        0.884083        0        
C1        C        0.076923        0.351852        0.884083        0        
C2        C        0.115385        0.407408        0.884083        0        
C3        C        0.076923        0.42592500000000005        0.884083        0        
C4        C        0.115385        0.37037        0.884083        0        
C1        C        0.076923        0.46296300000000007        0.884083        0        
C2        C        0.115385        0.518519        0.884083        0        
C3        C        0.076923        0.537037        0.884083        0        
C4        C        0.115385        0.481481        0.884083        0        
C1        C        0.076923        0.574075        0.884083        0        
C2        C        0.115385        0.62963        0.884083        0        
C3        C        0.076923        0.648148        0.884083        0        
C4        C        0.115385        0.592592        0.884083        0        
C1        C        0.153846        0.018519        0.884083        0        
C2        C        0.192308        0.074075        0.884083        0        
C3        C        0.153846        0.092592        0.884083        0        
C4        C        0.192308        0.037037        0.884083        0        
C1        C        0.153846        0.12963        0.884083        0        
C2        C        0.192308        0.185185        0.884083        0        
C3        C        0.153846        0.203703        0.884083        0        
C4        C        0.192308        0.148148        0.884083        0        
C1        C        0.153846        0.24074099999999998        0.884083        0        
C2        C        0.192308        0.296297        0.884083        0        
C3        C        0.153846        0.314815        0.884083        0        
C4        C        0.192308        0.259259        0.884083        0        
C1        C        0.153846        0.351852        0.884083        0        
C2        C        0.192308        0.407408        0.884083        0        
C3        C        0.153846        0.42592500000000005        0.884083        0        
C4        C        0.192308        0.37037        0.884083        0        
C1        C        0.153846        0.46296300000000007        0.884083        0        
C2        C        0.192308        0.518519        0.884083        0        
C3        C        0.153846        0.537037        0.884083        0        
C4        C        0.192308        0.481481        0.884083        0        
C1        C        0.153846        0.574075        0.884083        0        
C2        C        0.192308        0.62963        0.884083        0        
C3        C        0.153846        0.648148        0.884083        0        
C4        C        0.192308        0.592592        0.884083        0        
C1        C        0.230769        0.018519        0.884083        0        
C2        C        0.269231        0.074075        0.884083        0        
C3        C        0.230769        0.092592        0.884083        0        
C4        C        0.269231        0.037037        0.884083        0        
C1        C        0.230769        0.12963        0.884083        0        
C2        C        0.269231        0.185185        0.884083        0        
C3        C        0.230769        0.203703        0.884083        0        
C4        C        0.269231        0.148148        0.884083        0        
C1        C        0.230769        0.24074099999999998        0.884083        0        
C2        C        0.269231        0.296297        0.884083        0        
C3        C        0.230769        0.314815        0.884083        0        
C4        C        0.269231        0.259259        0.884083        0        
C1        C        0.230769        0.351852        0.884083        0        
C2        C        0.269231        0.407408        0.884083        0        
C3        C        0.230769        0.42592500000000005        0.884083        0        
C4        C        0.269231        0.37037        0.884083        0        
C1        C        0.230769        0.46296300000000007        0.884083        0        
C2        C        0.269231        0.518519        0.884083        0        
C3        C        0.230769        0.537037        0.884083        0        
C4        C        0.269231        0.481481        0.884083        0        
C1        C        0.230769        0.574075        0.884083        0        
C2        C        0.269231        0.62963        0.884083        0        
C3        C        0.230769        0.648148        0.884083        0        
C4        C        0.269231        0.592592        0.884083        0        
C1        C        0.307692        0.018519        0.884083        0        
C2        C        0.346154        0.074075        0.884083        0        
C3        C        0.307692        0.092592        0.884083        0        
C4        C        0.346154        0.037037        0.884083        0        
C1        C        0.307692        0.12963        0.884083        0        
C2        C        0.346154        0.185185        0.884083        0        
C3        C        0.307692        0.203703        0.884083        0        
C4        C        0.346154        0.148148        0.884083        0        
C1        C        0.307692        0.24074099999999998        0.884083        0        
C2        C        0.346154        0.296297        0.884083        0        
C3        C        0.307692        0.314815        0.884083        0        
C4        C        0.346154        0.259259        0.884083        0        
C1        C        0.307692        0.351852        0.884083        0        
C2        C        0.346154        0.407408        0.884083        0        
C3        C        0.307692        0.42592500000000005        0.884083        0        
C4        C        0.346154        0.37037        0.884083        0        
C1        C        0.307692        0.46296300000000007        0.884083        0        
C2        C        0.346154        0.518519        0.884083        0        
C3        C        0.307692        0.537037        0.884083        0        
C4        C        0.346154        0.481481        0.884083        0        
C1        C        0.307692        0.574075        0.884083        0        
C2        C        0.346154        0.62963        0.884083        0        
C3        C        0.307692        0.648148        0.884083        0        
C4        C        0.346154        0.592592        0.884083        0        
C1        C        0.384615        0.018519        0.884083        0        
C2        C        0.423077        0.074075        0.884083        0        
C3        C        0.384615        0.092592        0.884083        0        
C4        C        0.423077        0.037037        0.884083        0        
C1        C        0.384615        0.12963        0.884083        0        
C2        C        0.423077        0.185185        0.884083        0        
C3        C        0.384615        0.203703        0.884083        0        
C4        C        0.423077        0.148148        0.884083        0        
C1        C        0.384615        0.24074099999999998        0.884083        0        
C2        C        0.423077        0.296297        0.884083        0        
C3        C        0.384615        0.314815        0.884083        0        
C4        C        0.423077        0.259259        0.884083        0        
C1        C        0.384615        0.351852        0.884083        0        
C2        C        0.423077        0.407408        0.884083        0        
C3        C        0.384615        0.42592500000000005        0.884083        0        
C4        C        0.423077        0.37037        0.884083        0        
C1        C        0.384615        0.46296300000000007        0.884083        0        
C2        C        0.423077        0.518519        0.884083        0        
C3        C        0.384615        0.537037        0.884083        0        
C4        C        0.423077        0.481481        0.884083        0        
C1        C        0.384615        0.574075        0.884083        0        
C2        C        0.423077        0.62963        0.884083        0        
C3        C        0.384615        0.648148        0.884083        0        
C4        C        0.423077        0.592592        0.884083        0        
C1        C        0.461538        0.018519        0.884083        0        
C2        C        0.5        0.074075        0.884083        0        
C3        C        0.461538        0.092592        0.884083        0        
C4        C        0.5        0.037037        0.884083        0        
C1        C        0.461538        0.12963        0.884083        0        
C2        C        0.5        0.185185        0.884083        0        
C3        C        0.461538        0.203703        0.884083        0        
C4        C        0.5        0.148148        0.884083        0        
C1        C        0.461538        0.24074099999999998        0.884083        0        
C2        C        0.5        0.296297        0.884083        0        
C3        C        0.461538        0.314815        0.884083        0        
C4        C        0.5        0.259259        0.884083        0        
C1        C        0.461538        0.351852        0.884083        0        
C2        C        0.5        0.407408        0.884083        0        
C3        C        0.461538        0.42592500000000005        0.884083        0        
C4        C        0.5        0.37037        0.884083        0        
C1        C        0.461538        0.46296300000000007        0.884083        0        
C2        C        0.5        0.518519        0.884083        0        
C3        C        0.461538        0.537037        0.884083        0        
C4        C        0.5        0.481481        0.884083        0        
C1        C        0.461538        0.574075        0.884083        0        
C2        C        0.5        0.62963        0.884083        0        
C3        C        0.461538        0.648148        0.884083        0        
C4        C        0.5        0.592592        0.884083        0        
C1        C        0.538462        0.018519        0.884083        0        
C2        C        0.576923        0.074075        0.884083        0        
C3        C        0.538462        0.092592        0.884083        0        
C4        C        0.576923        0.037037        0.884083        0        
C1        C        0.538462        0.12963        0.884083        0        
C2        C        0.576923        0.185185        0.884083        0        
C3        C        0.538462        0.203703        0.884083        0        
C4        C        0.576923        0.148148        0.884083        0        
C1        C        0.538462        0.24074099999999998        0.884083        0        
C2        C        0.576923        0.296297        0.884083        0        
C3        C        0.538462        0.314815        0.884083        0        
C4        C        0.576923        0.259259        0.884083        0        
C1        C        0.538462        0.351852        0.884083        0        
C2        C        0.576923        0.407408        0.884083        0        
C3        C        0.538462        0.42592500000000005        0.884083        0        
C4        C        0.576923        0.37037        0.884083        0        
C1        C        0.538462        0.46296300000000007        0.884083        0        
C2        C        0.576923        0.518519        0.884083        0        
C3        C        0.538462        0.537037        0.884083        0        
C4        C        0.576923        0.481481        0.884083        0        
C1        C        0.538462        0.574075        0.884083        0        
C2        C        0.576923        0.62963        0.884083        0        
C3        C        0.538462        0.648148        0.884083        0        
C4        C        0.576923        0.592592        0.884083        0        
C1        C        0.615385        0.018519        0.884083        0        
C2        C        0.653846        0.074075        0.884083        0        
C3        C        0.615385        0.092592        0.884083        0        
C4        C        0.653846        0.037037        0.884083        0        
C1        C        0.615385        0.12963        0.884083        0        
C2        C        0.653846        0.185185        0.884083        0        
C3        C        0.615385        0.203703        0.884083        0        
C4        C        0.653846        0.148148        0.884083        0        
C1        C        0.615385        0.24074099999999998        0.884083        0        
C2        C        0.653846        0.296297        0.884083        0        
C3        C        0.615385        0.314815        0.884083        0        
C4        C        0.653846        0.259259        0.884083        0        
C1        C        0.615385        0.351852        0.884083        0        
C2        C        0.653846        0.407408        0.884083        0        
C3        C        0.615385        0.42592500000000005        0.884083        0        
C4        C        0.653846        0.37037        0.884083        0        
C1        C        0.615385        0.46296300000000007        0.884083        0        
C2        C        0.653846        0.518519        0.884083        0        
C3        C        0.615385        0.537037        0.884083        0        
C4        C        0.653846        0.481481        0.884083        0        
C1        C        0.615385        0.574075        0.884083        0        
C2        C        0.653846        0.62963        0.884083        0        
C3        C        0.615385        0.648148        0.884083        0        
C4        C        0.653846        0.592592        0.884083        0        
C1        C        0.692308        0.018519        0.884083        0        
C2        C        0.730769        0.074075        0.884083        0        
C3        C        0.692308        0.092592        0.884083        0        
C4        C        0.730769        0.037037        0.884083        0        
C1        C        0.692308        0.12963        0.884083        0        
C2        C        0.730769        0.185185        0.884083        0        
C3        C        0.692308        0.203703        0.884083        0        
C4        C        0.730769        0.148148        0.884083        0        
C1        C        0.692308        0.24074099999999998        0.884083        0        
C2        C        0.730769        0.296297        0.884083        0        
C3        C        0.692308        0.314815        0.884083        0        
C4        C        0.730769        0.259259        0.884083        0        
C1        C        0.692308        0.351852        0.884083        0        
C2        C        0.730769        0.407408        0.884083        0        
C3        C        0.692308        0.42592500000000005        0.884083        0        
C4        C        0.730769        0.37037        0.884083        0        
C1        C        0.692308        0.46296300000000007        0.884083        0        
C2        C        0.730769        0.518519        0.884083        0        
C3        C        0.692308        0.537037        0.884083        0        
C4        C        0.730769        0.481481        0.884083        0        
C1        C        0.692308        0.574075        0.884083        0        
C2        C        0.730769        0.62963        0.884083        0        
C3        C        0.692308        0.648148        0.884083        0        
C4        C        0.730769        0.592592        0.884083        0        
C1        C        0.769231        0.018519        0.884083        0        
C2        C        0.807692        0.074075        0.884083        0        
C3        C        0.769231        0.092592        0.884083        0        
C4        C        0.807692        0.037037        0.884083        0        
C1        C        0.769231        0.12963        0.884083        0        
C2        C        0.807692        0.185185        0.884083        0        
C3        C        0.769231        0.203703        0.884083        0        
C4        C        0.807692        0.148148        0.884083        0        
C1        C        0.769231        0.24074099999999998        0.884083        0        
C2        C        0.807692        0.296297        0.884083        0        
C3        C        0.769231        0.314815        0.884083        0        
C4        C        0.807692        0.259259        0.884083        0        
C1        C        0.769231        0.351852        0.884083        0        
C2        C        0.807692        0.407408        0.884083        0        
C3        C        0.769231        0.42592500000000005        0.884083        0        
C4        C        0.807692        0.37037        0.884083        0        
C1        C        0.769231        0.46296300000000007        0.884083        0        
C2        C        0.807692        0.518519        0.884083        0        
C3        C        0.769231        0.537037        0.884083        0        
C4        C        0.807692        0.481481        0.884083        0        
C1        C        0.769231        0.574075        0.884083        0        
C2        C        0.807692        0.62963        0.884083        0        
C3        C        0.769231        0.648148        0.884083        0        
C4        C        0.807692        0.592592        0.884083        0        
C1        C        0.846154        0.018519        0.884083        0        
C2        C        0.884615        0.074075        0.884083        0        
C3        C        0.846154        0.092592        0.884083        0        
C4        C        0.884615        0.037037        0.884083        0        
C1        C        0.846154        0.12963        0.884083        0        
C2        C        0.884615        0.185185        0.884083        0        
C3        C        0.846154        0.203703        0.884083        0        
C4        C        0.884615        0.148148        0.884083        0        
C1        C        0.846154        0.24074099999999998        0.884083        0        
C2        C        0.884615        0.296297        0.884083        0        
C3        C        0.846154        0.314815        0.884083        0        
C4        C        0.884615        0.259259        0.884083        0        
C1        C        0.846154        0.351852        0.884083        0        
C2        C        0.884615        0.407408        0.884083        0        
C3        C        0.846154        0.42592500000000005        0.884083        0        
C4        C        0.884615        0.37037        0.884083        0        
C1        C        0.846154        0.46296300000000007        0.884083        0        
C2        C        0.884615        0.518519        0.884083        0        
C3        C        0.846154        0.537037        0.884083        0        
C4        C        0.884615        0.481481        0.884083        0        
C1        C        0.846154        0.574075        0.884083        0        
C2        C        0.884615        0.62963        0.884083        0        
C3        C        0.846154        0.648148        0.884083        0        
C4        C        0.884615        0.592592        0.884083        0        
C1        C        0.923077        0.018519        0.884083        0        
C2        C        0.961538        0.074075        0.884083        0        
C3        C        0.923077        0.092592        0.884083        0        
C4        C        0.961538        0.037037        0.884083        0        
C1        C        0.923077        0.12963        0.884083        0        
C2        C        0.961538        0.185185        0.884083        0        
C3        C        0.923077        0.203703        0.884083        0        
C4        C        0.961538        0.148148        0.884083        0        
C1        C        0.923077        0.24074099999999998        0.884083        0        
C2        C        0.961538        0.296297        0.884083        0        
C3        C        0.923077        0.314815        0.884083        0        
C4        C        0.961538        0.259259        0.884083        0        
C1        C        0.923077        0.351852        0.884083        0        
C2        C        0.961538        0.407408        0.884083        0        
C3        C        0.923077        0.42592500000000005        0.884083        0        
C4        C        0.961538        0.37037        0.884083        0        
C1        C        0.923077        0.46296300000000007        0.884083        0        
C2        C        0.961538        0.518519        0.884083        0        
C3        C        0.923077        0.537037        0.884083        0        
C4        C        0.961538        0.481481        0.884083        0        
C1        C        0.923077        0.574075        0.884083        0        
C2        C        0.961538        0.62963        0.884083        0        
C3        C        0.923077        0.648148        0.884083        0        
C4        C        0.961538        0.592592        0.884083        0        
C1        C        1.0        0.018519        0.884083        0        
C2        C        1.038462        0.074075        0.884083        0        
C3        C        1.0        0.092592        0.884083        0        
C4        C        1.038462        0.037037        0.884083        0        
C1        C        1.0        0.12963        0.884083        0        
C2        C        1.038462        0.185185        0.884083        0        
C3        C        1.0        0.203703        0.884083        0        
C4        C        1.038462        0.148148        0.884083        0        
C1        C        1.0        0.24074099999999998        0.884083        0        
C2        C        1.038462        0.296297        0.884083        0        
C3        C        1.0        0.314815        0.884083        0        
C4        C        1.038462        0.259259        0.884083        0        
C1        C        1.0        0.351852        0.884083        0        
C2        C        1.038462        0.407408        0.884083        0        
C3        C        1.0        0.42592500000000005        0.884083        0        
C4        C        1.038462        0.37037        0.884083        0        
C1        C        1.0        0.46296300000000007        0.884083        0        
C2        C        1.038462        0.518519        0.884083        0        
C3        C        1.0        0.537037        0.884083        0        
C4        C        1.038462        0.481481        0.884083        0        
C1        C        1.0        0.574075        0.884083        0        
C2        C        1.038462        0.62963        0.884083        0        
C3        C        1.0        0.648148        0.884083        0        
C4        C        1.038462        0.592592        0.884083        0        
C1        C        0.0        0.685186        0.884083        0        
C1        C        0.076923        0.685186        0.884083        0        
C1        C        0.153846        0.685186        0.884083        0        
C1        C        0.230769        0.685186        0.884083        0        
C1        C        0.307692        0.685186        0.884083        0        
C1        C        0.384615        0.685186        0.884083        0        
C1        C        0.461538        0.685186        0.884083        0        
C1        C        0.538462        0.685186        0.884083        0        
C1        C        0.615385        0.685186        0.884083        0        
C1        C        0.692308        0.685186        0.884083        0        
C1        C        0.769231        0.685186        0.884083        0        
C1        C        0.846154        0.685186        0.884083        0        
C1        C        0.923077        0.685186        0.884083        0        
C1        C        1.0        0.685186        0.884083        0        
C2        C        0.038462        0.740741        0.884083        0        
C2        C        0.115385        0.740741        0.884083        0        
C2        C        0.192308        0.740741        0.884083        0        
C2        C        0.269231        0.740741        0.884083        0        
C2        C        0.346154        0.740741        0.884083        0        
C2        C        0.423077        0.740741        0.884083        0        
C2        C        0.5        0.740741        0.884083        0        
C2        C        0.576923        0.740741        0.884083        0        
C2        C        0.653846        0.740741        0.884083        0        
C2        C        0.730769        0.740741        0.884083        0        
C2        C        0.807692        0.740741        0.884083        0        
C2        C        0.884615        0.740741        0.884083        0        
C2        C        0.961538        0.740741        0.884083        0        
C2        C        1.038462        0.740741        0.884083        0        
C3        C        0.0        0.759259        0.884083        0        
C3        C        0.076923        0.759259        0.884083        0        
C3        C        0.153846        0.759259        0.884083        0        
C3        C        0.230769        0.759259        0.884083        0        
C3        C        0.307692        0.759259        0.884083        0        
C3        C        0.384615        0.759259        0.884083        0        
C3        C        0.461538        0.759259        0.884083        0        
C3        C        0.538462        0.759259        0.884083        0        
C3        C        0.615385        0.759259        0.884083        0        
C3        C        0.692308        0.759259        0.884083        0        
C3        C        0.769231        0.759259        0.884083        0        
C3        C        0.846154        0.759259        0.884083        0        
C3        C        0.923077        0.759259        0.884083        0        
C3        C        1.0        0.759259        0.884083        0        
C4        C        0.038462        0.703703        0.884083        0        
C4        C        0.115385        0.703703        0.884083        0        
C4        C        0.192308        0.703703        0.884083        0        
C4        C        0.269231        0.703703        0.884083        0        
C4        C        0.346154        0.703703        0.884083        0        
C4        C        0.423077        0.703703        0.884083        0        
C4        C        0.5        0.703703        0.884083        0        
C4        C        0.576923        0.703703        0.884083        0        
C4        C        0.653846        0.703703        0.884083        0        
C4        C        0.730769        0.703703        0.884083        0        
C4        C        0.807692        0.703703        0.884083        0        
C4        C        0.884615        0.703703        0.884083        0        
C4        C        0.961538        0.703703        0.884083        0        
C4        C        1.038462        0.703703        0.884083        0        
C1        C        0.0        0.796297        0.884083        0        
C1        C        0.076923        0.796297        0.884083        0        
C1        C        0.153846        0.796297        0.884083        0        
C1        C        0.230769        0.796297        0.884083        0        
C1        C        0.307692        0.796297        0.884083        0        
C1        C        0.384615        0.796297        0.884083        0        
C1        C        0.461538        0.796297        0.884083        0        
C1        C        0.538462        0.796297        0.884083        0        
C1        C        0.615385        0.796297        0.884083        0        
C1        C        0.692308        0.796297        0.884083        0        
C1        C        0.769231        0.796297        0.884083        0        
C1        C        0.846154        0.796297        0.884083        0        
C1        C        0.923077        0.796297        0.884083        0        
C1        C        1.0        0.796297        0.884083        0        
C2        C        0.038462        0.851852        0.884083        0        
C2        C        0.115385        0.851852        0.884083        0        
C2        C        0.192308        0.851852        0.884083        0        
C2        C        0.269231        0.851852        0.884083        0        
C2        C        0.346154        0.851852        0.884083        0        
C2        C        0.423077        0.851852        0.884083        0        
C2        C        0.5        0.851852        0.884083        0        
C2        C        0.576923        0.851852        0.884083        0        
C2        C        0.653846        0.851852        0.884083        0        
C2        C        0.730769        0.851852        0.884083        0        
C2        C        0.807692        0.851852        0.884083        0        
C2        C        0.884615        0.851852        0.884083        0        
C2        C        0.961538        0.851852        0.884083        0        
C2        C        1.038462        0.851852        0.884083        0        
C3        C        0.0        0.87037        0.884083        0        
C3        C        0.076923        0.87037        0.884083        0        
C3        C        0.153846        0.87037        0.884083        0        
C3        C        0.230769        0.87037        0.884083        0        
C3        C        0.307692        0.87037        0.884083        0        
C3        C        0.384615        0.87037        0.884083        0        
C3        C        0.461538        0.87037        0.884083        0        
C3        C        0.538462        0.87037        0.884083        0        
C3        C        0.615385        0.87037        0.884083        0        
C3        C        0.692308        0.87037        0.884083        0        
C3        C        0.769231        0.87037        0.884083        0        
C3        C        0.846154        0.87037        0.884083        0        
C3        C        0.923077        0.87037        0.884083        0        
C3        C        1.0        0.87037        0.884083        0        
C4        C        0.038462        0.814814        0.884083        0        
C4        C        0.115385        0.814814        0.884083        0        
C4        C        0.192308        0.814814        0.884083        0        
C4        C        0.269231        0.814814        0.884083        0        
C4        C        0.346154        0.814814        0.884083        0        
C4        C        0.423077        0.814814        0.884083        0        
C4        C        0.5        0.814814        0.884083        0        
C4        C        0.576923        0.814814        0.884083        0        
C4        C        0.653846        0.814814        0.884083        0        
C4        C        0.730769        0.814814        0.884083        0        
C4        C        0.807692        0.814814        0.884083        0        
C4        C        0.884615        0.814814        0.884083        0        
C4        C        0.961538        0.814814        0.884083        0        
C4        C        1.038462        0.814814        0.884083        0        
C1        C        0.0        0.907408        0.884083        0        
C1        C        0.076923        0.907408        0.884083        0        
C1        C        0.153846        0.907408        0.884083        0        
C1        C        0.230769        0.907408        0.884083        0        
C1        C        0.307692        0.907408        0.884083        0        
C1        C        0.384615        0.907408        0.884083        0        
C1        C        0.461538        0.907408        0.884083        0        
C1        C        0.538462        0.907408        0.884083        0        
C1        C        0.615385        0.907408        0.884083        0        
C1        C        0.692308        0.907408        0.884083        0        
C1        C        0.769231        0.907408        0.884083        0        
C1        C        0.846154        0.907408        0.884083        0        
C1        C        0.923077        0.907408        0.884083        0        
C1        C        1.0        0.907408        0.884083        0        
C2        C        0.038462        0.962963        0.884083        0        
C2        C        0.115385        0.962963        0.884083        0        
C2        C        0.192308        0.962963        0.884083        0        
C2        C        0.269231        0.962963        0.884083        0        
C2        C        0.346154        0.962963        0.884083        0        
C2        C        0.423077        0.962963        0.884083        0        
C2        C        0.5        0.962963        0.884083        0        
C2        C        0.576923        0.962963        0.884083        0        
C2        C        0.653846        0.962963        0.884083        0        
C2        C        0.730769        0.962963        0.884083        0        
C2        C        0.807692        0.962963        0.884083        0        
C2        C        0.884615        0.962963        0.884083        0        
C2        C        0.961538        0.962963        0.884083        0        
C2        C        1.038462        0.962963        0.884083        0        
C3        C        0.0        0.9814809999999999        0.884083        0        
C3        C        0.076923        0.9814809999999999        0.884083        0        
C3        C        0.153846        0.9814809999999999        0.884083        0        
C3        C        0.230769        0.9814809999999999        0.884083        0        
C3        C        0.307692        0.9814809999999999        0.884083        0        
C3        C        0.384615        0.9814809999999999        0.884083        0        
C3        C        0.461538        0.9814809999999999        0.884083        0        
C3        C        0.538462        0.9814809999999999        0.884083        0        
C3        C        0.615385        0.9814809999999999        0.884083        0        
C3        C        0.692308        0.9814809999999999        0.884083        0        
C3        C        0.769231        0.9814809999999999        0.884083        0        
C3        C        0.846154        0.9814809999999999        0.884083        0        
C3        C        0.923077        0.9814809999999999        0.884083        0        
C3        C        1.0        0.9814809999999999        0.884083        0        
C4        C        0.038462        0.925925        0.884083        0        
C4        C        0.115385        0.925925        0.884083        0        
C4        C        0.192308        0.925925        0.884083        0        
C4        C        0.269231        0.925925        0.884083        0        
C4        C        0.346154        0.925925        0.884083        0        
C4        C        0.423077        0.925925        0.884083        0        
C4        C        0.5        0.925925        0.884083        0        
C4        C        0.576923        0.925925        0.884083        0        
C4        C        0.653846        0.925925        0.884083        0        
C4        C        0.730769        0.925925        0.884083        0        
C4        C        0.807692        0.925925        0.884083        0        
C4        C        0.884615        0.925925        0.884083        0        
C4        C        0.961538        0.925925        0.884083        0        
C4        C        1.038462        0.925925        0.884083        0        
C1        C        0.0        0.018519        1.0        0        
C2        C        0.038462        0.074075        1.0        0        
C3        C        0.0        0.092592        1.0        0        
C4        C        0.038462        0.037037        1.0        0        
C1        C        0.0        0.12963        1.0        0        
C2        C        0.038462        0.185185        1.0        0        
C3        C        0.0        0.203703        1.0        0        
C4        C        0.038462        0.148148        1.0        0        
C1        C        0.0        0.24074099999999998        1.0        0        
C2        C        0.038462        0.296297        1.0        0        
C3        C        0.0        0.314815        1.0        0        
C4        C        0.038462        0.259259        1.0        0        
C1        C        0.0        0.351852        1.0        0        
C2        C        0.038462        0.407408        1.0        0        
C3        C        0.0        0.42592500000000005        1.0        0        
C4        C        0.038462        0.37037        1.0        0        
C1        C        0.0        0.46296300000000007        1.0        0        
C2        C        0.038462        0.518519        1.0        0        
C3        C        0.0        0.537037        1.0        0        
C4        C        0.038462        0.481481        1.0        0        
C1        C        0.0        0.574075        1.0        0        
C2        C        0.038462        0.62963        1.0        0        
C3        C        0.0        0.648148        1.0        0        
C4        C        0.038462        0.592592        1.0        0        
C1        C        0.076923        0.018519        1.0        0        
C2        C        0.115385        0.074075        1.0        0        
C3        C        0.076923        0.092592        1.0        0        
C4        C        0.115385        0.037037        1.0        0        
C1        C        0.076923        0.12963        1.0        0        
C2        C        0.115385        0.185185        1.0        0        
C3        C        0.076923        0.203703        1.0        0        
C4        C        0.115385        0.148148        1.0        0        
C1        C        0.076923        0.24074099999999998        1.0        0        
C2        C        0.115385        0.296297        1.0        0        
C3        C        0.076923        0.314815        1.0        0        
C4        C        0.115385        0.259259        1.0        0        
C1        C        0.076923        0.351852        1.0        0        
C2        C        0.115385        0.407408        1.0        0        
C3        C        0.076923        0.42592500000000005        1.0        0        
C4        C        0.115385        0.37037        1.0        0        
C1        C        0.076923        0.46296300000000007        1.0        0        
C2        C        0.115385        0.518519        1.0        0        
C3        C        0.076923        0.537037        1.0        0        
C4        C        0.115385        0.481481        1.0        0        
C1        C        0.076923        0.574075        1.0        0        
C2        C        0.115385        0.62963        1.0        0        
C3        C        0.076923        0.648148        1.0        0        
C4        C        0.115385        0.592592        1.0        0        
C1        C        0.153846        0.018519        1.0        0        
C2        C        0.192308        0.074075        1.0        0        
C3        C        0.153846        0.092592        1.0        0        
C4        C        0.192308        0.037037        1.0        0        
C1        C        0.153846        0.12963        1.0        0        
C2        C        0.192308        0.185185        1.0        0        
C3        C        0.153846        0.203703        1.0        0        
C4        C        0.192308        0.148148        1.0        0        
C1        C        0.153846        0.24074099999999998        1.0        0        
C2        C        0.192308        0.296297        1.0        0        
C3        C        0.153846        0.314815        1.0        0        
C4        C        0.192308        0.259259        1.0        0        
C1        C        0.153846        0.351852        1.0        0        
C2        C        0.192308        0.407408        1.0        0        
C3        C        0.153846        0.42592500000000005        1.0        0        
C4        C        0.192308        0.37037        1.0        0        
C1        C        0.153846        0.46296300000000007        1.0        0        
C2        C        0.192308        0.518519        1.0        0        
C3        C        0.153846        0.537037        1.0        0        
C4        C        0.192308        0.481481        1.0        0        
C1        C        0.153846        0.574075        1.0        0        
C2        C        0.192308        0.62963        1.0        0        
C3        C        0.153846        0.648148        1.0        0        
C4        C        0.192308        0.592592        1.0        0        
C1        C        0.230769        0.018519        1.0        0        
C2        C        0.269231        0.074075        1.0        0        
C3        C        0.230769        0.092592        1.0        0        
C4        C        0.269231        0.037037        1.0        0        
C1        C        0.230769        0.12963        1.0        0        
C2        C        0.269231        0.185185        1.0        0        
C3        C        0.230769        0.203703        1.0        0        
C4        C        0.269231        0.148148        1.0        0        
C1        C        0.230769        0.24074099999999998        1.0        0        
C2        C        0.269231        0.296297        1.0        0        
C3        C        0.230769        0.314815        1.0        0        
C4        C        0.269231        0.259259        1.0        0        
C1        C        0.230769        0.351852        1.0        0        
C2        C        0.269231        0.407408        1.0        0        
C3        C        0.230769        0.42592500000000005        1.0        0        
C4        C        0.269231        0.37037        1.0        0        
C1        C        0.230769        0.46296300000000007        1.0        0        
C2        C        0.269231        0.518519        1.0        0        
C3        C        0.230769        0.537037        1.0        0        
C4        C        0.269231        0.481481        1.0        0        
C1        C        0.230769        0.574075        1.0        0        
C2        C        0.269231        0.62963        1.0        0        
C3        C        0.230769        0.648148        1.0        0        
C4        C        0.269231        0.592592        1.0        0        
C1        C        0.307692        0.018519        1.0        0        
C2        C        0.346154        0.074075        1.0        0        
C3        C        0.307692        0.092592        1.0        0        
C4        C        0.346154        0.037037        1.0        0        
C1        C        0.307692        0.12963        1.0        0        
C2        C        0.346154        0.185185        1.0        0        
C3        C        0.307692        0.203703        1.0        0        
C4        C        0.346154        0.148148        1.0        0        
C1        C        0.307692        0.24074099999999998        1.0        0        
C2        C        0.346154        0.296297        1.0        0        
C3        C        0.307692        0.314815        1.0        0        
C4        C        0.346154        0.259259        1.0        0        
C1        C        0.307692        0.351852        1.0        0        
C2        C        0.346154        0.407408        1.0        0        
C3        C        0.307692        0.42592500000000005        1.0        0        
C4        C        0.346154        0.37037        1.0        0        
C1        C        0.307692        0.46296300000000007        1.0        0        
C2        C        0.346154        0.518519        1.0        0        
C3        C        0.307692        0.537037        1.0        0        
C4        C        0.346154        0.481481        1.0        0        
C1        C        0.307692        0.574075        1.0        0        
C2        C        0.346154        0.62963        1.0        0        
C3        C        0.307692        0.648148        1.0        0        
C4        C        0.346154        0.592592        1.0        0        
C1        C        0.384615        0.018519        1.0        0        
C2        C        0.423077        0.074075        1.0        0        
C3        C        0.384615        0.092592        1.0        0        
C4        C        0.423077        0.037037        1.0        0        
C1        C        0.384615        0.12963        1.0        0        
C2        C        0.423077        0.185185        1.0        0        
C3        C        0.384615        0.203703        1.0        0        
C4        C        0.423077        0.148148        1.0        0        
C1        C        0.384615        0.24074099999999998        1.0        0        
C2        C        0.423077        0.296297        1.0        0        
C3        C        0.384615        0.314815        1.0        0        
C4        C        0.423077        0.259259        1.0        0        
C1        C        0.384615        0.351852        1.0        0        
C2        C        0.423077        0.407408        1.0        0        
C3        C        0.384615        0.42592500000000005        1.0        0        
C4        C        0.423077        0.37037        1.0        0        
C1        C        0.384615        0.46296300000000007        1.0        0        
C2        C        0.423077        0.518519        1.0        0        
C3        C        0.384615        0.537037        1.0        0        
C4        C        0.423077        0.481481        1.0        0        
C1        C        0.384615        0.574075        1.0        0        
C2        C        0.423077        0.62963        1.0        0        
C3        C        0.384615        0.648148        1.0        0        
C4        C        0.423077        0.592592        1.0        0        
C1        C        0.461538        0.018519        1.0        0        
C2        C        0.5        0.074075        1.0        0        
C3        C        0.461538        0.092592        1.0        0        
C4        C        0.5        0.037037        1.0        0        
C1        C        0.461538        0.12963        1.0        0        
C2        C        0.5        0.185185        1.0        0        
C3        C        0.461538        0.203703        1.0        0        
C4        C        0.5        0.148148        1.0        0        
C1        C        0.461538        0.24074099999999998        1.0        0        
C2        C        0.5        0.296297        1.0        0        
C3        C        0.461538        0.314815        1.0        0        
C4        C        0.5        0.259259        1.0        0        
C1        C        0.461538        0.351852        1.0        0        
C2        C        0.5        0.407408        1.0        0        
C3        C        0.461538        0.42592500000000005        1.0        0        
C4        C        0.5        0.37037        1.0        0        
C1        C        0.461538        0.46296300000000007        1.0        0        
C2        C        0.5        0.518519        1.0        0        
C3        C        0.461538        0.537037        1.0        0        
C4        C        0.5        0.481481        1.0        0        
C1        C        0.461538        0.574075        1.0        0        
C2        C        0.5        0.62963        1.0        0        
C3        C        0.461538        0.648148        1.0        0        
C4        C        0.5        0.592592        1.0        0        
C1        C        0.538462        0.018519        1.0        0        
C2        C        0.576923        0.074075        1.0        0        
C3        C        0.538462        0.092592        1.0        0        
C4        C        0.576923        0.037037        1.0        0        
C1        C        0.538462        0.12963        1.0        0        
C2        C        0.576923        0.185185        1.0        0        
C3        C        0.538462        0.203703        1.0        0        
C4        C        0.576923        0.148148        1.0        0        
C1        C        0.538462        0.24074099999999998        1.0        0        
C2        C        0.576923        0.296297        1.0        0        
C3        C        0.538462        0.314815        1.0        0        
C4        C        0.576923        0.259259        1.0        0        
C1        C        0.538462        0.351852        1.0        0        
C2        C        0.576923        0.407408        1.0        0        
C3        C        0.538462        0.42592500000000005        1.0        0        
C4        C        0.576923        0.37037        1.0        0        
C1        C        0.538462        0.46296300000000007        1.0        0        
C2        C        0.576923        0.518519        1.0        0        
C3        C        0.538462        0.537037        1.0        0        
C4        C        0.576923        0.481481        1.0        0        
C1        C        0.538462        0.574075        1.0        0        
C2        C        0.576923        0.62963        1.0        0        
C3        C        0.538462        0.648148        1.0        0        
C4        C        0.576923        0.592592        1.0        0        
C1        C        0.615385        0.018519        1.0        0        
C2        C        0.653846        0.074075        1.0        0        
C3        C        0.615385        0.092592        1.0        0        
C4        C        0.653846        0.037037        1.0        0        
C1        C        0.615385        0.12963        1.0        0        
C2        C        0.653846        0.185185        1.0        0        
C3        C        0.615385        0.203703        1.0        0        
C4        C        0.653846        0.148148        1.0        0        
C1        C        0.615385        0.24074099999999998        1.0        0        
C2        C        0.653846        0.296297        1.0        0        
C3        C        0.615385        0.314815        1.0        0        
C4        C        0.653846        0.259259        1.0        0        
C1        C        0.615385        0.351852        1.0        0        
C2        C        0.653846        0.407408        1.0        0        
C3        C        0.615385        0.42592500000000005        1.0        0        
C4        C        0.653846        0.37037        1.0        0        
C1        C        0.615385        0.46296300000000007        1.0        0        
C2        C        0.653846        0.518519        1.0        0        
C3        C        0.615385        0.537037        1.0        0        
C4        C        0.653846        0.481481        1.0        0        
C1        C        0.615385        0.574075        1.0        0        
C2        C        0.653846        0.62963        1.0        0        
C3        C        0.615385        0.648148        1.0        0        
C4        C        0.653846        0.592592        1.0        0        
C1        C        0.692308        0.018519        1.0        0        
C2        C        0.730769        0.074075        1.0        0        
C3        C        0.692308        0.092592        1.0        0        
C4        C        0.730769        0.037037        1.0        0        
C1        C        0.692308        0.12963        1.0        0        
C2        C        0.730769        0.185185        1.0        0        
C3        C        0.692308        0.203703        1.0        0        
C4        C        0.730769        0.148148        1.0        0        
C1        C        0.692308        0.24074099999999998        1.0        0        
C2        C        0.730769        0.296297        1.0        0        
C3        C        0.692308        0.314815        1.0        0        
C4        C        0.730769        0.259259        1.0        0        
C1        C        0.692308        0.351852        1.0        0        
C2        C        0.730769        0.407408        1.0        0        
C3        C        0.692308        0.42592500000000005        1.0        0        
C4        C        0.730769        0.37037        1.0        0        
C1        C        0.692308        0.46296300000000007        1.0        0        
C2        C        0.730769        0.518519        1.0        0        
C3        C        0.692308        0.537037        1.0        0        
C4        C        0.730769        0.481481        1.0        0        
C1        C        0.692308        0.574075        1.0        0        
C2        C        0.730769        0.62963        1.0        0        
C3        C        0.692308        0.648148        1.0        0        
C4        C        0.730769        0.592592        1.0        0        
C1        C        0.769231        0.018519        1.0        0        
C2        C        0.807692        0.074075        1.0        0        
C3        C        0.769231        0.092592        1.0        0        
C4        C        0.807692        0.037037        1.0        0        
C1        C        0.769231        0.12963        1.0        0        
C2        C        0.807692        0.185185        1.0        0        
C3        C        0.769231        0.203703        1.0        0        
C4        C        0.807692        0.148148        1.0        0        
C1        C        0.769231        0.24074099999999998        1.0        0        
C2        C        0.807692        0.296297        1.0        0        
C3        C        0.769231        0.314815        1.0        0        
C4        C        0.807692        0.259259        1.0        0        
C1        C        0.769231        0.351852        1.0        0        
C2        C        0.807692        0.407408        1.0        0        
C3        C        0.769231        0.42592500000000005        1.0        0        
C4        C        0.807692        0.37037        1.0        0        
C1        C        0.769231        0.46296300000000007        1.0        0        
C2        C        0.807692        0.518519        1.0        0        
C3        C        0.769231        0.537037        1.0        0        
C4        C        0.807692        0.481481        1.0        0        
C1        C        0.769231        0.574075        1.0        0        
C2        C        0.807692        0.62963        1.0        0        
C3        C        0.769231        0.648148        1.0        0        
C4        C        0.807692        0.592592        1.0        0        
C1        C        0.846154        0.018519        1.0        0        
C2        C        0.884615        0.074075        1.0        0        
C3        C        0.846154        0.092592        1.0        0        
C4        C        0.884615        0.037037        1.0        0        
C1        C        0.846154        0.12963        1.0        0        
C2        C        0.884615        0.185185        1.0        0        
C3        C        0.846154        0.203703        1.0        0        
C4        C        0.884615        0.148148        1.0        0        
C1        C        0.846154        0.24074099999999998        1.0        0        
C2        C        0.884615        0.296297        1.0        0        
C3        C        0.846154        0.314815        1.0        0        
C4        C        0.884615        0.259259        1.0        0        
C1        C        0.846154        0.351852        1.0        0        
C2        C        0.884615        0.407408        1.0        0        
C3        C        0.846154        0.42592500000000005        1.0        0        
C4        C        0.884615        0.37037        1.0        0        
C1        C        0.846154        0.46296300000000007        1.0        0        
C2        C        0.884615        0.518519        1.0        0        
C3        C        0.846154        0.537037        1.0        0        
C4        C        0.884615        0.481481        1.0        0        
C1        C        0.846154        0.574075        1.0        0        
C2        C        0.884615        0.62963        1.0        0        
C3        C        0.846154        0.648148        1.0        0        
C4        C        0.884615        0.592592        1.0        0        
C1        C        0.923077        0.018519        1.0        0        
C2        C        0.961538        0.074075        1.0        0        
C3        C        0.923077        0.092592        1.0        0        
C4        C        0.961538        0.037037        1.0        0        
C1        C        0.923077        0.12963        1.0        0        
C2        C        0.961538        0.185185        1.0        0        
C3        C        0.923077        0.203703        1.0        0        
C4        C        0.961538        0.148148        1.0        0        
C1        C        0.923077        0.24074099999999998        1.0        0        
C2        C        0.961538        0.296297        1.0        0        
C3        C        0.923077        0.314815        1.0        0        
C4        C        0.961538        0.259259        1.0        0        
C1        C        0.923077        0.351852        1.0        0        
C2        C        0.961538        0.407408        1.0        0        
C3        C        0.923077        0.42592500000000005        1.0        0        
C4        C        0.961538        0.37037        1.0        0        
C1        C        0.923077        0.46296300000000007        1.0        0        
C2        C        0.961538        0.518519        1.0        0        
C3        C        0.923077        0.537037        1.0        0        
C4        C        0.961538        0.481481        1.0        0        
C1        C        0.923077        0.574075        1.0        0        
C2        C        0.961538        0.62963        1.0        0        
C3        C        0.923077        0.648148        1.0        0        
C4        C        0.961538        0.592592        1.0        0        
C1        C        1.0        0.018519        1.0        0        
C2        C        1.038462        0.074075        1.0        0        
C3        C        1.0        0.092592        1.0        0        
C4        C        1.038462        0.037037        1.0        0        
C1        C        1.0        0.12963        1.0        0        
C2        C        1.038462        0.185185        1.0        0        
C3        C        1.0        0.203703        1.0        0        
C4        C        1.038462        0.148148        1.0        0        
C1        C        1.0        0.24074099999999998        1.0        0        
C2        C        1.038462        0.296297        1.0        0        
C3        C        1.0        0.314815        1.0        0        
C4        C        1.038462        0.259259        1.0        0        
C1        C        1.0        0.351852        1.0        0        
C2        C        1.038462        0.407408        1.0        0        
C3        C        1.0        0.42592500000000005        1.0        0        
C4        C        1.038462        0.37037        1.0        0        
C1        C        1.0        0.46296300000000007        1.0        0        
C2        C        1.038462        0.518519        1.0        0        
C3        C        1.0        0.537037        1.0        0        
C4        C        1.038462        0.481481        1.0        0        
C1        C        1.0        0.574075        1.0        0        
C2        C        1.038462        0.62963        1.0        0        
C3        C        1.0        0.648148        1.0        0        
C4        C        1.038462        0.592592        1.0        0        
C1        C        0.0        0.685186        1.0        0        
C1        C        0.076923        0.685186        1.0        0        
C1        C        0.153846        0.685186        1.0        0        
C1        C        0.230769        0.685186        1.0        0        
C1        C        0.307692        0.685186        1.0        0        
C1        C        0.384615        0.685186        1.0        0        
C1        C        0.461538        0.685186        1.0        0        
C1        C        0.538462        0.685186        1.0        0        
C1        C        0.615385        0.685186        1.0        0        
C1        C        0.692308        0.685186        1.0        0        
C1        C        0.769231        0.685186        1.0        0        
C1        C        0.846154        0.685186        1.0        0        
C1        C        0.923077        0.685186        1.0        0        
C1        C        1.0        0.685186        1.0        0        
C2        C        0.038462        0.740741        1.0        0        
C2        C        0.115385        0.740741        1.0        0        
C2        C        0.192308        0.740741        1.0        0        
C2        C        0.269231        0.740741        1.0        0        
C2        C        0.346154        0.740741        1.0        0        
C2        C        0.423077        0.740741        1.0        0        
C2        C        0.5        0.740741        1.0        0        
C2        C        0.576923        0.740741        1.0        0        
C2        C        0.653846        0.740741        1.0        0        
C2        C        0.730769        0.740741        1.0        0        
C2        C        0.807692        0.740741        1.0        0        
C2        C        0.884615        0.740741        1.0        0        
C2        C        0.961538        0.740741        1.0        0        
C2        C        1.038462        0.740741        1.0        0        
C3        C        0.0        0.759259        1.0        0        
C3        C        0.076923        0.759259        1.0        0        
C3        C        0.153846        0.759259        1.0        0        
C3        C        0.230769        0.759259        1.0        0        
C3        C        0.307692        0.759259        1.0        0        
C3        C        0.384615        0.759259        1.0        0        
C3        C        0.461538        0.759259        1.0        0        
C3        C        0.538462        0.759259        1.0        0        
C3        C        0.615385        0.759259        1.0        0        
C3        C        0.692308        0.759259        1.0        0        
C3        C        0.769231        0.759259        1.0        0        
C3        C        0.846154        0.759259        1.0        0        
C3        C        0.923077        0.759259        1.0        0        
C3        C        1.0        0.759259        1.0        0        
C4        C        0.038462        0.703703        1.0        0        
C4        C        0.115385        0.703703        1.0        0        
C4        C        0.192308        0.703703        1.0        0        
C4        C        0.269231        0.703703        1.0        0        
C4        C        0.346154        0.703703        1.0        0        
C4        C        0.423077        0.703703        1.0        0        
C4        C        0.5        0.703703        1.0        0        
C4        C        0.576923        0.703703        1.0        0        
C4        C        0.653846        0.703703        1.0        0        
C4        C        0.730769        0.703703        1.0        0        
C4        C        0.807692        0.703703        1.0        0        
C4        C        0.884615        0.703703        1.0        0        
C4        C        0.961538        0.703703        1.0        0        
C4        C        1.038462        0.703703        1.0        0        
C1        C        0.0        0.796297        1.0        0        
C1        C        0.076923        0.796297        1.0        0        
C1        C        0.153846        0.796297        1.0        0        
C1        C        0.230769        0.796297        1.0        0        
C1        C        0.307692        0.796297        1.0        0        
C1        C        0.384615        0.796297        1.0        0        
C1        C        0.461538        0.796297        1.0        0        
C1        C        0.538462        0.796297        1.0        0        
C1        C        0.615385        0.796297        1.0        0        
C1        C        0.692308        0.796297        1.0        0        
C1        C        0.769231        0.796297        1.0        0        
C1        C        0.846154        0.796297        1.0        0        
C1        C        0.923077        0.796297        1.0        0        
C1        C        1.0        0.796297        1.0        0        
C2        C        0.038462        0.851852        1.0        0        
C2        C        0.115385        0.851852        1.0        0        
C2        C        0.192308        0.851852        1.0        0        
C2        C        0.269231        0.851852        1.0        0        
C2        C        0.346154        0.851852        1.0        0        
C2        C        0.423077        0.851852        1.0        0        
C2        C        0.5        0.851852        1.0        0        
C2        C        0.576923        0.851852        1.0        0        
C2        C        0.653846        0.851852        1.0        0        
C2        C        0.730769        0.851852        1.0        0        
C2        C        0.807692        0.851852        1.0        0        
C2        C        0.884615        0.851852        1.0        0        
C2        C        0.961538        0.851852        1.0        0        
C2        C        1.038462        0.851852        1.0        0        
C3        C        0.0        0.87037        1.0        0        
C3        C        0.076923        0.87037        1.0        0        
C3        C        0.153846        0.87037        1.0        0        
C3        C        0.230769        0.87037        1.0        0        
C3        C        0.307692        0.87037        1.0        0        
C3        C        0.384615        0.87037        1.0        0        
C3        C        0.461538        0.87037        1.0        0        
C3        C        0.538462        0.87037        1.0        0        
C3        C        0.615385        0.87037        1.0        0        
C3        C        0.692308        0.87037        1.0        0        
C3        C        0.769231        0.87037        1.0        0        
C3        C        0.846154        0.87037        1.0        0        
C3        C        0.923077        0.87037        1.0        0        
C3        C        1.0        0.87037        1.0        0        
C4        C        0.038462        0.814814        1.0        0        
C4        C        0.115385        0.814814        1.0        0        
C4        C        0.192308        0.814814        1.0        0        
C4        C        0.269231        0.814814        1.0        0        
C4        C        0.346154        0.814814        1.0        0        
C4        C        0.423077        0.814814        1.0        0        
C4        C        0.5        0.814814        1.0        0        
C4        C        0.576923        0.814814        1.0        0        
C4        C        0.653846        0.814814        1.0        0        
C4        C        0.730769        0.814814        1.0        0        
C4        C        0.807692        0.814814        1.0        0        
C4        C        0.884615        0.814814        1.0        0        
C4        C        0.961538        0.814814        1.0        0        
C4        C        1.038462        0.814814        1.0        0        
C1        C        0.0        0.907408        1.0        0        
C1        C        0.076923        0.907408        1.0        0        
C1        C        0.153846        0.907408        1.0        0        
C1        C        0.230769        0.907408        1.0        0        
C1        C        0.307692        0.907408        1.0        0        
C1        C        0.384615        0.907408        1.0        0        
C1        C        0.461538        0.907408        1.0        0        
C1        C        0.538462        0.907408        1.0        0        
C1        C        0.615385        0.907408        1.0        0        
C1        C        0.692308        0.907408        1.0        0        
C1        C        0.769231        0.907408        1.0        0        
C1        C        0.846154        0.907408        1.0        0        
C1        C        0.923077        0.907408        1.0        0        
C1        C        1.0        0.907408        1.0        0        
C2        C        0.038462        0.962963        1.0        0        
C2        C        0.115385        0.962963        1.0        0        
C2        C        0.192308        0.962963        1.0        0        
C2        C        0.269231        0.962963        1.0        0        
C2        C        0.346154        0.962963        1.0        0        
C2        C        0.423077        0.962963        1.0        0        
C2        C        0.5        0.962963        1.0        0        
C2        C        0.576923        0.962963        1.0        0        
C2        C        0.653846        0.962963        1.0        0        
C2        C        0.730769        0.962963        1.0        0        
C2        C        0.807692        0.962963        1.0        0        
C2        C        0.884615        0.962963        1.0        0        
C2        C        0.961538        0.962963        1.0        0        
C2        C        1.038462        0.962963        1.0        0        
C3        C        0.0        0.9814809999999999        1.0        0        
C3        C        0.076923        0.9814809999999999        1.0        0        
C3        C        0.153846        0.9814809999999999        1.0        0        
C3        C        0.230769        0.9814809999999999        1.0        0        
C3        C        0.307692        0.9814809999999999        1.0        0        
C3        C        0.384615        0.9814809999999999        1.0        0        
C3        C        0.461538        0.9814809999999999        1.0        0        
C3        C        0.538462        0.9814809999999999        1.0        0        
C3        C        0.615385        0.9814809999999999        1.0        0        
C3        C        0.692308        0.9814809999999999        1.0        0        
C3        C        0.769231        0.9814809999999999        1.0        0        
C3        C        0.846154        0.9814809999999999        1.0        0        
C3        C        0.923077        0.9814809999999999        1.0        0        
C3        C        1.0        0.9814809999999999        1.0        0        
C4        C        0.038462        0.925925        1.0        0        
C4        C        0.115385        0.925925        1.0        0        
C4        C        0.192308        0.925925        1.0        0        
C4        C        0.269231        0.925925        1.0        0        
C4        C        0.346154        0.925925        1.0        0        
C4        C        0.423077        0.925925        1.0        0        
C4        C        0.5        0.925925        1.0        0        
C4        C        0.576923        0.925925        1.0        0        
C4        C        0.653846        0.925925        1.0        0        
C4        C        0.730769        0.925925        1.0        0        
C4        C        0.807692        0.925925        1.0        0        
C4        C        0.884615        0.925925        1.0        0        
C4        C        0.961538        0.925925        1.0        0        
C4        C        1.038462        0.925925        1.0        0        
O_OH        O        0.076923        0.018519        0.28141868512110724        -0.64        
O_OH        O        0.076923        0.24074099999999998        0.28141868512110724        -0.64        
O_OH        O        0.076923        0.46296300000000007        0.28141868512110724        -0.64        
O_OH        O        0.230769        0.018519        0.28141868512110724        -0.64        
O_OH        O        0.230769        0.24074099999999998        0.28141868512110724        -0.64        
O_OH        O        0.230769        0.46296300000000007        0.28141868512110724        -0.64        
O_OH        O        0.846154        0.018519        0.28141868512110724        -0.64        
O_OH        O        0.846154        0.24074099999999998        0.28141868512110724        -0.64        
O_OH        O        0.846154        0.46296300000000007        0.28141868512110724        -0.64        
O_OH        O        1.0        0.018519        0.28141868512110724        -0.64        
O_OH        O        1.0        0.24074099999999998        0.28141868512110724        -0.64        
O_OH        O        1.0        0.46296300000000007        0.28141868512110724        -0.64        
O_OH        O        0.076923        0.685186        0.28141868512110724        -0.64        
O_OH        O        0.230769        0.685186        0.28141868512110724        -0.64        
O_OH        O        0.846154        0.685186        0.28141868512110724        -0.64        
O_OH        O        1.0        0.685186        0.28141868512110724        -0.64        
O_OH        O        0.076923        0.907408        0.28141868512110724        -0.64        
O_OH        O        0.230769        0.907408        0.28141868512110724        -0.64        
O_OH        O        0.846154        0.907408        0.28141868512110724        -0.64        
O_OH        O        1.0        0.907408        0.28141868512110724        -0.64        
O_OH        O        0.076923        0.018519        0.7185813148788928        -0.64        
O_OH        O        0.076923        0.24074099999999998        0.7185813148788928        -0.64        
O_OH        O        0.076923        0.46296300000000007        0.7185813148788928        -0.64        
O_OH        O        0.230769        0.018519        0.7185813148788928        -0.64        
O_OH        O        0.230769        0.24074099999999998        0.7185813148788928        -0.64        
O_OH        O        0.230769        0.46296300000000007        0.7185813148788928        -0.64        
O_OH        O        0.846154        0.018519        0.7185813148788928        -0.64        
O_OH        O        0.846154        0.24074099999999998        0.7185813148788928        -0.64        
O_OH        O        0.846154        0.46296300000000007        0.7185813148788928        -0.64        
O_OH        O        1.0        0.018519        0.7185813148788928        -0.64        
O_OH        O        1.0        0.24074099999999998        0.7185813148788928        -0.64        
O_OH        O        1.0        0.46296300000000007        0.7185813148788928        -0.64        
O_OH        O        0.076923        0.685186        0.7185813148788928        -0.64        
O_OH        O        0.230769        0.685186        0.7185813148788928        -0.64        
O_OH        O        0.846154        0.685186        0.7185813148788928        -0.64        
O_OH        O        1.0        0.685186        0.7185813148788928        -0.64        
O_OH        O        0.076923        0.907408        0.7185813148788928        -0.64        
O_OH        O        0.230769        0.907408        0.7185813148788928        -0.64        
O_OH        O        0.846154        0.907408        0.7185813148788928        -0.64        
O_OH        O        1.0        0.907408        0.7185813148788928        -0.64        
H_OH        H        0.06725175893403298        0.04054146378382858        0.29305186851211074        0.44        
H_OH        H        0.049674946537782635        0.2465289970652088        0.29305186851211074        0.44        
H_OH        H        0.04890828862928365        0.46496890685799563        0.29305186851211074        0.44        
H_OH        H        0.22984354949641037        0.041959743836283356        0.29305186851211074        0.44        
H_OH        H        0.25608395889060165        0.250948618662337        0.29305186851211074        0.44        
H_OH        H        0.23304813346532183        0.48633927682337585        0.29305186851211074        0.44        
H_OH        H        0.856410938005131        0.04035631244293223        0.29305186851211074        0.44        
H_OH        H        0.8619825301483659        0.260125264401837        0.29305186851211074        0.44        
H_OH        H        0.8271488238535722        0.4802477340390866        0.29305186851211074        0.44        
H_OH        H        0.9891328174235907        0.04014998230857981        0.29305186851211074        0.44        
H_OH        H        0.9754716975862531        0.2522072754663102        0.29305186851211074        0.44        
H_OH        H        1.010277011778043        0.48479374509038947        0.29305186851211074        0.44        
H_OH        H        0.09073221235014617        0.7056160983293909        0.29305186851211074        0.44        
H_OH        H        0.25715979567054603        0.6932787790220649        0.29305186851211074        0.44        
H_OH        H        0.818965482195808        0.6911656133175995        0.29305186851211074        0.44        
H_OH        H        0.9828372669509574        0.7037635371799307        0.29305186851211074        0.44        
H_OH        H        0.10488282689825333        0.9098901555822595        0.29305186851211074        0.44        
H_OH        H        0.24485470906810908        0.9277063424389056        0.29305186851211074        0.44        
H_OH        H        0.8224664932121536        0.9200444906240491        0.29305186851211074        0.44        
H_OH        H        1.0082727679608618        0.9298233561176592        0.29305186851211074        0.44        
H_OH        H        0.09763797879702486        0.03437810404826005        0.7069481314878893        0.44        
H_OH        H        0.04891472429662681        0.24280848915953454        0.7069481314878893        0.44        
H_OH        H        0.056763997277906285        0.4793129862548432        0.7069481314878893        0.44        
H_OH        H        0.25634211024743825        0.02826864328546223        0.7069481314878893        0.44        
H_OH        H        0.20299119491407716        0.2443769036179495        0.7069481314878893        0.44        
H_OH        H        0.2509487947562988        0.47929513114836486        0.7069481314878893        0.44        
H_OH        H        0.8271838522920218        0.035830485427163127        0.7069481314878893        0.44        
H_OH        H        0.8681963344467593        0.2553020617798008        0.7069481314878893        0.44        
H_OH        H        0.8181742063867168        0.46528334326862986        0.7069481314878893        0.44        
H_OH        H        0.995405598831775        0.04165723923937656        0.7069481314878893        0.44        
H_OH        H        0.9811671194777181        0.25815644861309034        0.7069481314878893        0.44        
H_OH        H        0.9738580745408033        0.4715995026695988        0.7069481314878893        0.44        
H_OH        H        0.08911749020108285        0.706318973267929        0.7069481314878893        0.44        
H_OH        H        0.2027237012225774        0.6868684506250046        0.7069481314878893        0.44        
H_OH        H        0.8293460874486861        0.7039878905281008        0.7069481314878893        0.44        
H_OH        H        0.9874123477473679        0.7061579717246101        0.7069481314878893        0.44        
H_OH        H        0.05427469882036922        0.9213070255023228        0.7069481314878893        0.44        
H_OH        H        0.23090642491849228        0.9308611706245157        0.7069481314878893        0.44        
H_OH        H        0.8273121819505047        0.9248167213394803        0.7069481314878893        0.44        
H_OH        H        0.9958015409651176        0.9305985226481328        0.7069481314878893        0.44        
