data_graphite_ortho

_audit_creation_method RASPA-1.0
_audit_creation_date 2012-2-3
_audit_author_name 'David Dubbeldam'

_cell_length_a    39.36    
_cell_length_b    38.34    
_cell_length_c    15.6    
_cell_angle_alpha 90
_cell_angle_beta  90
_cell_angle_gamma 90
_cell_volume      23541.37      

_symmetry_cell_setting          triclinic
_symmetry_space_group_name_Hall 'P 1'
_symmetry_space_group_name_H-M  'P 1'
_symmetry_Int_Tables_number     1

_symmetry_equiv_pos_as_xyz 'x,y,z'

loop_
_atom_site_label
_atom_site_type_symbol
_atom_site_fract_x
_atom_site_fract_y
_atom_site_fract_z
_atom_site_charge
C_FG        C        0.0        0.018519        0.14882942307692307        0.08        
C2        C        0.03125        0.074075        0.14882942307692307        0        
C3        C        0.0        0.092592        0.14882942307692307        0        
C4        C        0.03125        0.037037        0.14882942307692307        0        
C_FG        C        0.0        0.12963        0.14882942307692307        0.08        
C2        C        0.03125        0.185185        0.14882942307692307        0        
C3        C        0.0        0.203703        0.14882942307692307        0        
C4        C        0.03125        0.148148        0.14882942307692307        0        
C_FG        C        0.0        0.24074099999999998        0.14882942307692307        0.08        
C2        C        0.03125        0.296297        0.14882942307692307        0        
C3        C        0.0        0.314815        0.14882942307692307        0        
C4        C        0.03125        0.259259        0.14882942307692307        0        
C_FG        C        0.0        0.351852        0.14882942307692307        0.08        
C2        C        0.03125        0.407408        0.14882942307692307        0        
C3        C        0.0        0.42592500000000005        0.14882942307692307        0        
C4        C        0.03125        0.37037        0.14882942307692307        0        
C_FG        C        0.0        0.46296300000000007        0.14882942307692307        0.08        
C2        C        0.03125        0.518519        0.14882942307692307        0        
C3        C        0.0        0.537037        0.14882942307692307        0        
C4        C        0.03125        0.481481        0.14882942307692307        0        
C_FG        C        0.0        0.574075        0.14882942307692307        0.08        
C2        C        0.03125        0.62963        0.14882942307692307        0        
C3        C        0.0        0.648148        0.14882942307692307        0        
C4        C        0.03125        0.592592        0.14882942307692307        0        
C1        C        0.0625        0.018519        0.14882942307692307        0        
C2        C        0.09375        0.074075        0.14882942307692307        0        
C3        C        0.0625        0.092592        0.14882942307692307        0        
C4        C        0.09375        0.037037        0.14882942307692307        0        
C1        C        0.0625        0.12963        0.14882942307692307        0        
C2        C        0.09375        0.185185        0.14882942307692307        0        
C3        C        0.0625        0.203703        0.14882942307692307        0        
C4        C        0.09375        0.148148        0.14882942307692307        0        
C1        C        0.0625        0.24074099999999998        0.14882942307692307        0        
C2        C        0.09375        0.296297        0.14882942307692307        0        
C3        C        0.0625        0.314815        0.14882942307692307        0        
C4        C        0.09375        0.259259        0.14882942307692307        0        
C1        C        0.0625        0.351852        0.14882942307692307        0        
C2        C        0.09375        0.407408        0.14882942307692307        0        
C3        C        0.0625        0.42592500000000005        0.14882942307692307        0        
C4        C        0.09375        0.37037        0.14882942307692307        0        
C1        C        0.0625        0.46296300000000007        0.14882942307692307        0        
C2        C        0.09375        0.518519        0.14882942307692307        0        
C3        C        0.0625        0.537037        0.14882942307692307        0        
C4        C        0.09375        0.481481        0.14882942307692307        0        
C1        C        0.0625        0.574075        0.14882942307692307        0        
C2        C        0.09375        0.62963        0.14882942307692307        0        
C3        C        0.0625        0.648148        0.14882942307692307        0        
C4        C        0.09375        0.592592        0.14882942307692307        0        
C1        C        0.125        0.018519        0.14882942307692307        0        
C2        C        0.15625        0.074075        0.14882942307692307        0        
C3        C        0.125        0.092592        0.14882942307692307        0        
C4        C        0.15625        0.037037        0.14882942307692307        0        
C1        C        0.125        0.12963        0.14882942307692307        0        
C2        C        0.15625        0.185185        0.14882942307692307        0        
C3        C        0.125        0.203703        0.14882942307692307        0        
C4        C        0.15625        0.148148        0.14882942307692307        0        
C1        C        0.125        0.24074099999999998        0.14882942307692307        0        
C2        C        0.15625        0.296297        0.14882942307692307        0        
C3        C        0.125        0.314815        0.14882942307692307        0        
C4        C        0.15625        0.259259        0.14882942307692307        0        
C1        C        0.125        0.351852        0.14882942307692307        0        
C2        C        0.15625        0.407408        0.14882942307692307        0        
C3        C        0.125        0.42592500000000005        0.14882942307692307        0        
C4        C        0.15625        0.37037        0.14882942307692307        0        
C1        C        0.125        0.46296300000000007        0.14882942307692307        0        
C2        C        0.15625        0.518519        0.14882942307692307        0        
C3        C        0.125        0.537037        0.14882942307692307        0        
C4        C        0.15625        0.481481        0.14882942307692307        0        
C1        C        0.125        0.574075        0.14882942307692307        0        
C2        C        0.15625        0.62963        0.14882942307692307        0        
C3        C        0.125        0.648148        0.14882942307692307        0        
C4        C        0.15625        0.592592        0.14882942307692307        0        
C1        C        0.1875        0.018519        0.14882942307692307        0        
C2        C        0.21875        0.074075        0.14882942307692307        0        
C3        C        0.1875        0.092592        0.14882942307692307        0        
C4        C        0.21875        0.037037        0.14882942307692307        0        
C1        C        0.1875        0.12963        0.14882942307692307        0        
C2        C        0.21875        0.185185        0.14882942307692307        0        
C3        C        0.1875        0.203703        0.14882942307692307        0        
C4        C        0.21875        0.148148        0.14882942307692307        0        
C1        C        0.1875        0.24074099999999998        0.14882942307692307        0        
C2        C        0.21875        0.296297        0.14882942307692307        0        
C3        C        0.1875        0.314815        0.14882942307692307        0        
C4        C        0.21875        0.259259        0.14882942307692307        0        
C1        C        0.1875        0.351852        0.14882942307692307        0        
C2        C        0.21875        0.407408        0.14882942307692307        0        
C3        C        0.1875        0.42592500000000005        0.14882942307692307        0        
C4        C        0.21875        0.37037        0.14882942307692307        0        
C1        C        0.1875        0.46296300000000007        0.14882942307692307        0        
C2        C        0.21875        0.518519        0.14882942307692307        0        
C3        C        0.1875        0.537037        0.14882942307692307        0        
C4        C        0.21875        0.481481        0.14882942307692307        0        
C1        C        0.1875        0.574075        0.14882942307692307        0        
C2        C        0.21875        0.62963        0.14882942307692307        0        
C3        C        0.1875        0.648148        0.14882942307692307        0        
C4        C        0.21875        0.592592        0.14882942307692307        0        
C_FG        C        0.25        0.018519        0.14882942307692307        0.08        
C2        C        0.28125        0.074075        0.14882942307692307        0        
C3        C        0.25        0.092592        0.14882942307692307        0        
C4        C        0.28125        0.037037        0.14882942307692307        0        
C_FG        C        0.25        0.12963        0.14882942307692307        0.08        
C2        C        0.28125        0.185185        0.14882942307692307        0        
C3        C        0.25        0.203703        0.14882942307692307        0        
C4        C        0.28125        0.148148        0.14882942307692307        0        
C_FG        C        0.25        0.24074099999999998        0.14882942307692307        0.08        
C2        C        0.28125        0.296297        0.14882942307692307        0        
C3        C        0.25        0.314815        0.14882942307692307        0        
C4        C        0.28125        0.259259        0.14882942307692307        0        
C_FG        C        0.25        0.351852        0.14882942307692307        0.08        
C2        C        0.28125        0.407408        0.14882942307692307        0        
C3        C        0.25        0.42592500000000005        0.14882942307692307        0        
C4        C        0.28125        0.37037        0.14882942307692307        0        
C_FG        C        0.25        0.46296300000000007        0.14882942307692307        0.08        
C2        C        0.28125        0.518519        0.14882942307692307        0        
C3        C        0.25        0.537037        0.14882942307692307        0        
C4        C        0.28125        0.481481        0.14882942307692307        0        
C_FG        C        0.25        0.574075        0.14882942307692307        0.08        
C2        C        0.28125        0.62963        0.14882942307692307        0        
C3        C        0.25        0.648148        0.14882942307692307        0        
C4        C        0.28125        0.592592        0.14882942307692307        0        
C1        C        0.3125        0.018519        0.14882942307692307        0        
C2        C        0.34375        0.074075        0.14882942307692307        0        
C3        C        0.3125        0.092592        0.14882942307692307        0        
C4        C        0.34375        0.037037        0.14882942307692307        0        
C1        C        0.3125        0.12963        0.14882942307692307        0        
C2        C        0.34375        0.185185        0.14882942307692307        0        
C3        C        0.3125        0.203703        0.14882942307692307        0        
C4        C        0.34375        0.148148        0.14882942307692307        0        
C1        C        0.3125        0.24074099999999998        0.14882942307692307        0        
C2        C        0.34375        0.296297        0.14882942307692307        0        
C3        C        0.3125        0.314815        0.14882942307692307        0        
C4        C        0.34375        0.259259        0.14882942307692307        0        
C1        C        0.3125        0.351852        0.14882942307692307        0        
C2        C        0.34375        0.407408        0.14882942307692307        0        
C3        C        0.3125        0.42592500000000005        0.14882942307692307        0        
C4        C        0.34375        0.37037        0.14882942307692307        0        
C1        C        0.3125        0.46296300000000007        0.14882942307692307        0        
C2        C        0.34375        0.518519        0.14882942307692307        0        
C3        C        0.3125        0.537037        0.14882942307692307        0        
C4        C        0.34375        0.481481        0.14882942307692307        0        
C1        C        0.3125        0.574075        0.14882942307692307        0        
C2        C        0.34375        0.62963        0.14882942307692307        0        
C3        C        0.3125        0.648148        0.14882942307692307        0        
C4        C        0.34375        0.592592        0.14882942307692307        0        
C1        C        0.375        0.018519        0.14882942307692307        0        
C2        C        0.40625        0.074075        0.14882942307692307        0        
C3        C        0.375        0.092592        0.14882942307692307        0        
C4        C        0.40625        0.037037        0.14882942307692307        0        
C1        C        0.375        0.12963        0.14882942307692307        0        
C2        C        0.40625        0.185185        0.14882942307692307        0        
C3        C        0.375        0.203703        0.14882942307692307        0        
C4        C        0.40625        0.148148        0.14882942307692307        0        
C1        C        0.375        0.24074099999999998        0.14882942307692307        0        
C2        C        0.40625        0.296297        0.14882942307692307        0        
C3        C        0.375        0.314815        0.14882942307692307        0        
C4        C        0.40625        0.259259        0.14882942307692307        0        
C1        C        0.375        0.351852        0.14882942307692307        0        
C2        C        0.40625        0.407408        0.14882942307692307        0        
C3        C        0.375        0.42592500000000005        0.14882942307692307        0        
C4        C        0.40625        0.37037        0.14882942307692307        0        
C1        C        0.375        0.46296300000000007        0.14882942307692307        0        
C2        C        0.40625        0.518519        0.14882942307692307        0        
C3        C        0.375        0.537037        0.14882942307692307        0        
C4        C        0.40625        0.481481        0.14882942307692307        0        
C1        C        0.375        0.574075        0.14882942307692307        0        
C2        C        0.40625        0.62963        0.14882942307692307        0        
C3        C        0.375        0.648148        0.14882942307692307        0        
C4        C        0.40625        0.592592        0.14882942307692307        0        
C1        C        0.4375        0.018519        0.14882942307692307        0        
C2        C        0.46875        0.074075        0.14882942307692307        0        
C3        C        0.4375        0.092592        0.14882942307692307        0        
C4        C        0.46875        0.037037        0.14882942307692307        0        
C1        C        0.4375        0.12963        0.14882942307692307        0        
C2        C        0.46875        0.185185        0.14882942307692307        0        
C3        C        0.4375        0.203703        0.14882942307692307        0        
C4        C        0.46875        0.148148        0.14882942307692307        0        
C1        C        0.4375        0.24074099999999998        0.14882942307692307        0        
C2        C        0.46875        0.296297        0.14882942307692307        0        
C3        C        0.4375        0.314815        0.14882942307692307        0        
C4        C        0.46875        0.259259        0.14882942307692307        0        
C1        C        0.4375        0.351852        0.14882942307692307        0        
C2        C        0.46875        0.407408        0.14882942307692307        0        
C3        C        0.4375        0.42592500000000005        0.14882942307692307        0        
C4        C        0.46875        0.37037        0.14882942307692307        0        
C1        C        0.4375        0.46296300000000007        0.14882942307692307        0        
C2        C        0.46875        0.518519        0.14882942307692307        0        
C3        C        0.4375        0.537037        0.14882942307692307        0        
C4        C        0.46875        0.481481        0.14882942307692307        0        
C1        C        0.4375        0.574075        0.14882942307692307        0        
C2        C        0.46875        0.62963        0.14882942307692307        0        
C3        C        0.4375        0.648148        0.14882942307692307        0        
C4        C        0.46875        0.592592        0.14882942307692307        0        
C_FG        C        0.5        0.018519        0.14882942307692307        0.08        
C2        C        0.53125        0.074075        0.14882942307692307        0        
C3        C        0.5        0.092592        0.14882942307692307        0        
C4        C        0.53125        0.037037        0.14882942307692307        0        
C_FG        C        0.5        0.12963        0.14882942307692307        0.08        
C2        C        0.53125        0.185185        0.14882942307692307        0        
C3        C        0.5        0.203703        0.14882942307692307        0        
C4        C        0.53125        0.148148        0.14882942307692307        0        
C_FG        C        0.5        0.24074099999999998        0.14882942307692307        0.08        
C2        C        0.53125        0.296297        0.14882942307692307        0        
C3        C        0.5        0.314815        0.14882942307692307        0        
C4        C        0.53125        0.259259        0.14882942307692307        0        
C_FG        C        0.5        0.351852        0.14882942307692307        0.08        
C2        C        0.53125        0.407408        0.14882942307692307        0        
C3        C        0.5        0.42592500000000005        0.14882942307692307        0        
C4        C        0.53125        0.37037        0.14882942307692307        0        
C_FG        C        0.5        0.46296300000000007        0.14882942307692307        0.08        
C2        C        0.53125        0.518519        0.14882942307692307        0        
C3        C        0.5        0.537037        0.14882942307692307        0        
C4        C        0.53125        0.481481        0.14882942307692307        0        
C_FG        C        0.5        0.574075        0.14882942307692307        0.08        
C2        C        0.53125        0.62963        0.14882942307692307        0        
C3        C        0.5        0.648148        0.14882942307692307        0        
C4        C        0.53125        0.592592        0.14882942307692307        0        
C1        C        0.5625        0.018519        0.14882942307692307        0        
C2        C        0.59375        0.074075        0.14882942307692307        0        
C3        C        0.5625        0.092592        0.14882942307692307        0        
C4        C        0.59375        0.037037        0.14882942307692307        0        
C1        C        0.5625        0.12963        0.14882942307692307        0        
C2        C        0.59375        0.185185        0.14882942307692307        0        
C3        C        0.5625        0.203703        0.14882942307692307        0        
C4        C        0.59375        0.148148        0.14882942307692307        0        
C1        C        0.5625        0.24074099999999998        0.14882942307692307        0        
C2        C        0.59375        0.296297        0.14882942307692307        0        
C3        C        0.5625        0.314815        0.14882942307692307        0        
C4        C        0.59375        0.259259        0.14882942307692307        0        
C1        C        0.5625        0.351852        0.14882942307692307        0        
C2        C        0.59375        0.407408        0.14882942307692307        0        
C3        C        0.5625        0.42592500000000005        0.14882942307692307        0        
C4        C        0.59375        0.37037        0.14882942307692307        0        
C1        C        0.5625        0.46296300000000007        0.14882942307692307        0        
C2        C        0.59375        0.518519        0.14882942307692307        0        
C3        C        0.5625        0.537037        0.14882942307692307        0        
C4        C        0.59375        0.481481        0.14882942307692307        0        
C1        C        0.5625        0.574075        0.14882942307692307        0        
C2        C        0.59375        0.62963        0.14882942307692307        0        
C3        C        0.5625        0.648148        0.14882942307692307        0        
C4        C        0.59375        0.592592        0.14882942307692307        0        
C1        C        0.625        0.018519        0.14882942307692307        0        
C2        C        0.65625        0.074075        0.14882942307692307        0        
C3        C        0.625        0.092592        0.14882942307692307        0        
C4        C        0.65625        0.037037        0.14882942307692307        0        
C1        C        0.625        0.12963        0.14882942307692307        0        
C2        C        0.65625        0.185185        0.14882942307692307        0        
C3        C        0.625        0.203703        0.14882942307692307        0        
C4        C        0.65625        0.148148        0.14882942307692307        0        
C1        C        0.625        0.24074099999999998        0.14882942307692307        0        
C2        C        0.65625        0.296297        0.14882942307692307        0        
C3        C        0.625        0.314815        0.14882942307692307        0        
C4        C        0.65625        0.259259        0.14882942307692307        0        
C1        C        0.625        0.351852        0.14882942307692307        0        
C2        C        0.65625        0.407408        0.14882942307692307        0        
C3        C        0.625        0.42592500000000005        0.14882942307692307        0        
C4        C        0.65625        0.37037        0.14882942307692307        0        
C1        C        0.625        0.46296300000000007        0.14882942307692307        0        
C2        C        0.65625        0.518519        0.14882942307692307        0        
C3        C        0.625        0.537037        0.14882942307692307        0        
C4        C        0.65625        0.481481        0.14882942307692307        0        
C1        C        0.625        0.574075        0.14882942307692307        0        
C2        C        0.65625        0.62963        0.14882942307692307        0        
C3        C        0.625        0.648148        0.14882942307692307        0        
C4        C        0.65625        0.592592        0.14882942307692307        0        
C1        C        0.6875        0.018519        0.14882942307692307        0        
C2        C        0.71875        0.074075        0.14882942307692307        0        
C3        C        0.6875        0.092592        0.14882942307692307        0        
C4        C        0.71875        0.037037        0.14882942307692307        0        
C1        C        0.6875        0.12963        0.14882942307692307        0        
C2        C        0.71875        0.185185        0.14882942307692307        0        
C3        C        0.6875        0.203703        0.14882942307692307        0        
C4        C        0.71875        0.148148        0.14882942307692307        0        
C1        C        0.6875        0.24074099999999998        0.14882942307692307        0        
C2        C        0.71875        0.296297        0.14882942307692307        0        
C3        C        0.6875        0.314815        0.14882942307692307        0        
C4        C        0.71875        0.259259        0.14882942307692307        0        
C1        C        0.6875        0.351852        0.14882942307692307        0        
C2        C        0.71875        0.407408        0.14882942307692307        0        
C3        C        0.6875        0.42592500000000005        0.14882942307692307        0        
C4        C        0.71875        0.37037        0.14882942307692307        0        
C1        C        0.6875        0.46296300000000007        0.14882942307692307        0        
C2        C        0.71875        0.518519        0.14882942307692307        0        
C3        C        0.6875        0.537037        0.14882942307692307        0        
C4        C        0.71875        0.481481        0.14882942307692307        0        
C1        C        0.6875        0.574075        0.14882942307692307        0        
C2        C        0.71875        0.62963        0.14882942307692307        0        
C3        C        0.6875        0.648148        0.14882942307692307        0        
C4        C        0.71875        0.592592        0.14882942307692307        0        
C_FG        C        0.75        0.018519        0.14882942307692307        0.08        
C2        C        0.78125        0.074075        0.14882942307692307        0        
C3        C        0.75        0.092592        0.14882942307692307        0        
C4        C        0.78125        0.037037        0.14882942307692307        0        
C_FG        C        0.75        0.12963        0.14882942307692307        0.08        
C2        C        0.78125        0.185185        0.14882942307692307        0        
C3        C        0.75        0.203703        0.14882942307692307        0        
C4        C        0.78125        0.148148        0.14882942307692307        0        
C_FG        C        0.75        0.24074099999999998        0.14882942307692307        0.08        
C2        C        0.78125        0.296297        0.14882942307692307        0        
C3        C        0.75        0.314815        0.14882942307692307        0        
C4        C        0.78125        0.259259        0.14882942307692307        0        
C_FG        C        0.75        0.351852        0.14882942307692307        0.08        
C2        C        0.78125        0.407408        0.14882942307692307        0        
C3        C        0.75        0.42592500000000005        0.14882942307692307        0        
C4        C        0.78125        0.37037        0.14882942307692307        0        
C_FG        C        0.75        0.46296300000000007        0.14882942307692307        0.08        
C2        C        0.78125        0.518519        0.14882942307692307        0        
C3        C        0.75        0.537037        0.14882942307692307        0        
C4        C        0.78125        0.481481        0.14882942307692307        0        
C_FG        C        0.75        0.574075        0.14882942307692307        0.08        
C2        C        0.78125        0.62963        0.14882942307692307        0        
C3        C        0.75        0.648148        0.14882942307692307        0        
C4        C        0.78125        0.592592        0.14882942307692307        0        
C1        C        0.8125        0.018519        0.14882942307692307        0        
C2        C        0.84375        0.074075        0.14882942307692307        0        
C3        C        0.8125        0.092592        0.14882942307692307        0        
C4        C        0.84375        0.037037        0.14882942307692307        0        
C1        C        0.8125        0.12963        0.14882942307692307        0        
C2        C        0.84375        0.185185        0.14882942307692307        0        
C3        C        0.8125        0.203703        0.14882942307692307        0        
C4        C        0.84375        0.148148        0.14882942307692307        0        
C1        C        0.8125        0.24074099999999998        0.14882942307692307        0        
C2        C        0.84375        0.296297        0.14882942307692307        0        
C3        C        0.8125        0.314815        0.14882942307692307        0        
C4        C        0.84375        0.259259        0.14882942307692307        0        
C1        C        0.8125        0.351852        0.14882942307692307        0        
C2        C        0.84375        0.407408        0.14882942307692307        0        
C3        C        0.8125        0.42592500000000005        0.14882942307692307        0        
C4        C        0.84375        0.37037        0.14882942307692307        0        
C1        C        0.8125        0.46296300000000007        0.14882942307692307        0        
C2        C        0.84375        0.518519        0.14882942307692307        0        
C3        C        0.8125        0.537037        0.14882942307692307        0        
C4        C        0.84375        0.481481        0.14882942307692307        0        
C1        C        0.8125        0.574075        0.14882942307692307        0        
C2        C        0.84375        0.62963        0.14882942307692307        0        
C3        C        0.8125        0.648148        0.14882942307692307        0        
C4        C        0.84375        0.592592        0.14882942307692307        0        
C1        C        0.875        0.018519        0.14882942307692307        0        
C2        C        0.9062500000000001        0.074075        0.14882942307692307        0        
C3        C        0.875        0.092592        0.14882942307692307        0        
C4        C        0.9062500000000001        0.037037        0.14882942307692307        0        
C1        C        0.875        0.12963        0.14882942307692307        0        
C2        C        0.9062500000000001        0.185185        0.14882942307692307        0        
C3        C        0.875        0.203703        0.14882942307692307        0        
C4        C        0.9062500000000001        0.148148        0.14882942307692307        0        
C1        C        0.875        0.24074099999999998        0.14882942307692307        0        
C2        C        0.9062500000000001        0.296297        0.14882942307692307        0        
C3        C        0.875        0.314815        0.14882942307692307        0        
C4        C        0.9062500000000001        0.259259        0.14882942307692307        0        
C1        C        0.875        0.351852        0.14882942307692307        0        
C2        C        0.9062500000000001        0.407408        0.14882942307692307        0        
C3        C        0.875        0.42592500000000005        0.14882942307692307        0        
C4        C        0.9062500000000001        0.37037        0.14882942307692307        0        
C1        C        0.875        0.46296300000000007        0.14882942307692307        0        
C2        C        0.9062500000000001        0.518519        0.14882942307692307        0        
C3        C        0.875        0.537037        0.14882942307692307        0        
C4        C        0.9062500000000001        0.481481        0.14882942307692307        0        
C1        C        0.875        0.574075        0.14882942307692307        0        
C2        C        0.9062500000000001        0.62963        0.14882942307692307        0        
C3        C        0.875        0.648148        0.14882942307692307        0        
C4        C        0.9062500000000001        0.592592        0.14882942307692307        0        
C1        C        0.9375        0.018519        0.14882942307692307        0        
C2        C        0.9687500000000001        0.074075        0.14882942307692307        0        
C3        C        0.9375        0.092592        0.14882942307692307        0        
C4        C        0.9687500000000001        0.037037        0.14882942307692307        0        
C1        C        0.9375        0.12963        0.14882942307692307        0        
C2        C        0.9687500000000001        0.185185        0.14882942307692307        0        
C3        C        0.9375        0.203703        0.14882942307692307        0        
C4        C        0.9687500000000001        0.148148        0.14882942307692307        0        
C1        C        0.9375        0.24074099999999998        0.14882942307692307        0        
C2        C        0.9687500000000001        0.296297        0.14882942307692307        0        
C3        C        0.9375        0.314815        0.14882942307692307        0        
C4        C        0.9687500000000001        0.259259        0.14882942307692307        0        
C1        C        0.9375        0.351852        0.14882942307692307        0        
C2        C        0.9687500000000001        0.407408        0.14882942307692307        0        
C3        C        0.9375        0.42592500000000005        0.14882942307692307        0        
C4        C        0.9687500000000001        0.37037        0.14882942307692307        0        
C1        C        0.9375        0.46296300000000007        0.14882942307692307        0        
C2        C        0.9687500000000001        0.518519        0.14882942307692307        0        
C3        C        0.9375        0.537037        0.14882942307692307        0        
C4        C        0.9687500000000001        0.481481        0.14882942307692307        0        
C1        C        0.9375        0.574075        0.14882942307692307        0        
C2        C        0.9687500000000001        0.62963        0.14882942307692307        0        
C3        C        0.9375        0.648148        0.14882942307692307        0        
C4        C        0.9687500000000001        0.592592        0.14882942307692307        0        
C_FG        C        0.0        0.685186        0.14882942307692307        0.08        
C1        C        0.0625        0.685186        0.14882942307692307        0        
C1        C        0.125        0.685186        0.14882942307692307        0        
C1        C        0.1875        0.685186        0.14882942307692307        0        
C_FG        C        0.25        0.685186        0.14882942307692307        0.08        
C1        C        0.3125        0.685186        0.14882942307692307        0        
C1        C        0.375        0.685186        0.14882942307692307        0        
C1        C        0.4375        0.685186        0.14882942307692307        0        
C_FG        C        0.5        0.685186        0.14882942307692307        0.08        
C1        C        0.5625        0.685186        0.14882942307692307        0        
C1        C        0.625        0.685186        0.14882942307692307        0        
C1        C        0.6875        0.685186        0.14882942307692307        0        
C_FG        C        0.75        0.685186        0.14882942307692307        0.08        
C1        C        0.8125        0.685186        0.14882942307692307        0        
C1        C        0.875        0.685186        0.14882942307692307        0        
C1        C        0.9375        0.685186        0.14882942307692307        0        
C2        C        0.03125        0.740741        0.14882942307692307        0        
C2        C        0.09375        0.740741        0.14882942307692307        0        
C2        C        0.15625        0.740741        0.14882942307692307        0        
C2        C        0.21875        0.740741        0.14882942307692307        0        
C2        C        0.28125        0.740741        0.14882942307692307        0        
C2        C        0.34375        0.740741        0.14882942307692307        0        
C2        C        0.40625        0.740741        0.14882942307692307        0        
C2        C        0.46875        0.740741        0.14882942307692307        0        
C2        C        0.53125        0.740741        0.14882942307692307        0        
C2        C        0.59375        0.740741        0.14882942307692307        0        
C2        C        0.65625        0.740741        0.14882942307692307        0        
C2        C        0.71875        0.740741        0.14882942307692307        0        
C2        C        0.78125        0.740741        0.14882942307692307        0        
C2        C        0.84375        0.740741        0.14882942307692307        0        
C2        C        0.9062500000000001        0.740741        0.14882942307692307        0        
C2        C        0.9687500000000001        0.740741        0.14882942307692307        0        
C3        C        0.0        0.759259        0.14882942307692307        0        
C3        C        0.0625        0.759259        0.14882942307692307        0        
C3        C        0.125        0.759259        0.14882942307692307        0        
C3        C        0.1875        0.759259        0.14882942307692307        0        
C3        C        0.25        0.759259        0.14882942307692307        0        
C3        C        0.3125        0.759259        0.14882942307692307        0        
C3        C        0.375        0.759259        0.14882942307692307        0        
C3        C        0.4375        0.759259        0.14882942307692307        0        
C3        C        0.5        0.759259        0.14882942307692307        0        
C3        C        0.5625        0.759259        0.14882942307692307        0        
C3        C        0.625        0.759259        0.14882942307692307        0        
C3        C        0.6875        0.759259        0.14882942307692307        0        
C3        C        0.75        0.759259        0.14882942307692307        0        
C3        C        0.8125        0.759259        0.14882942307692307        0        
C3        C        0.875        0.759259        0.14882942307692307        0        
C3        C        0.9375        0.759259        0.14882942307692307        0        
C4        C        0.03125        0.703703        0.14882942307692307        0        
C4        C        0.09375        0.703703        0.14882942307692307        0        
C4        C        0.15625        0.703703        0.14882942307692307        0        
C4        C        0.21875        0.703703        0.14882942307692307        0        
C4        C        0.28125        0.703703        0.14882942307692307        0        
C4        C        0.34375        0.703703        0.14882942307692307        0        
C4        C        0.40625        0.703703        0.14882942307692307        0        
C4        C        0.46875        0.703703        0.14882942307692307        0        
C4        C        0.53125        0.703703        0.14882942307692307        0        
C4        C        0.59375        0.703703        0.14882942307692307        0        
C4        C        0.65625        0.703703        0.14882942307692307        0        
C4        C        0.71875        0.703703        0.14882942307692307        0        
C4        C        0.78125        0.703703        0.14882942307692307        0        
C4        C        0.84375        0.703703        0.14882942307692307        0        
C4        C        0.9062500000000001        0.703703        0.14882942307692307        0        
C4        C        0.9687500000000001        0.703703        0.14882942307692307        0        
C_FG        C        0.0        0.796297        0.14882942307692307        0.08        
C1        C        0.0625        0.796297        0.14882942307692307        0        
C1        C        0.125        0.796297        0.14882942307692307        0        
C1        C        0.1875        0.796297        0.14882942307692307        0        
C_FG        C        0.25        0.796297        0.14882942307692307        0.08        
C1        C        0.3125        0.796297        0.14882942307692307        0        
C1        C        0.375        0.796297        0.14882942307692307        0        
C1        C        0.4375        0.796297        0.14882942307692307        0        
C_FG        C        0.5        0.796297        0.14882942307692307        0.08        
C1        C        0.5625        0.796297        0.14882942307692307        0        
C1        C        0.625        0.796297        0.14882942307692307        0        
C1        C        0.6875        0.796297        0.14882942307692307        0        
C_FG        C        0.75        0.796297        0.14882942307692307        0.08        
C1        C        0.8125        0.796297        0.14882942307692307        0        
C1        C        0.875        0.796297        0.14882942307692307        0        
C1        C        0.9375        0.796297        0.14882942307692307        0        
C2        C        0.03125        0.851852        0.14882942307692307        0        
C2        C        0.09375        0.851852        0.14882942307692307        0        
C2        C        0.15625        0.851852        0.14882942307692307        0        
C2        C        0.21875        0.851852        0.14882942307692307        0        
C2        C        0.28125        0.851852        0.14882942307692307        0        
C2        C        0.34375        0.851852        0.14882942307692307        0        
C2        C        0.40625        0.851852        0.14882942307692307        0        
C2        C        0.46875        0.851852        0.14882942307692307        0        
C2        C        0.53125        0.851852        0.14882942307692307        0        
C2        C        0.59375        0.851852        0.14882942307692307        0        
C2        C        0.65625        0.851852        0.14882942307692307        0        
C2        C        0.71875        0.851852        0.14882942307692307        0        
C2        C        0.78125        0.851852        0.14882942307692307        0        
C2        C        0.84375        0.851852        0.14882942307692307        0        
C2        C        0.9062500000000001        0.851852        0.14882942307692307        0        
C2        C        0.9687500000000001        0.851852        0.14882942307692307        0        
C3        C        0.0        0.87037        0.14882942307692307        0        
C3        C        0.0625        0.87037        0.14882942307692307        0        
C3        C        0.125        0.87037        0.14882942307692307        0        
C3        C        0.1875        0.87037        0.14882942307692307        0        
C3        C        0.25        0.87037        0.14882942307692307        0        
C3        C        0.3125        0.87037        0.14882942307692307        0        
C3        C        0.375        0.87037        0.14882942307692307        0        
C3        C        0.4375        0.87037        0.14882942307692307        0        
C3        C        0.5        0.87037        0.14882942307692307        0        
C3        C        0.5625        0.87037        0.14882942307692307        0        
C3        C        0.625        0.87037        0.14882942307692307        0        
C3        C        0.6875        0.87037        0.14882942307692307        0        
C3        C        0.75        0.87037        0.14882942307692307        0        
C3        C        0.8125        0.87037        0.14882942307692307        0        
C3        C        0.875        0.87037        0.14882942307692307        0        
C3        C        0.9375        0.87037        0.14882942307692307        0        
C4        C        0.03125        0.814814        0.14882942307692307        0        
C4        C        0.09375        0.814814        0.14882942307692307        0        
C4        C        0.15625        0.814814        0.14882942307692307        0        
C4        C        0.21875        0.814814        0.14882942307692307        0        
C4        C        0.28125        0.814814        0.14882942307692307        0        
C4        C        0.34375        0.814814        0.14882942307692307        0        
C4        C        0.40625        0.814814        0.14882942307692307        0        
C4        C        0.46875        0.814814        0.14882942307692307        0        
C4        C        0.53125        0.814814        0.14882942307692307        0        
C4        C        0.59375        0.814814        0.14882942307692307        0        
C4        C        0.65625        0.814814        0.14882942307692307        0        
C4        C        0.71875        0.814814        0.14882942307692307        0        
C4        C        0.78125        0.814814        0.14882942307692307        0        
C4        C        0.84375        0.814814        0.14882942307692307        0        
C4        C        0.9062500000000001        0.814814        0.14882942307692307        0        
C4        C        0.9687500000000001        0.814814        0.14882942307692307        0        
C_FG        C        0.0        0.907408        0.14882942307692307        0.08        
C1        C        0.0625        0.907408        0.14882942307692307        0        
C1        C        0.125        0.907408        0.14882942307692307        0        
C1        C        0.1875        0.907408        0.14882942307692307        0        
C_FG        C        0.25        0.907408        0.14882942307692307        0.08        
C1        C        0.3125        0.907408        0.14882942307692307        0        
C1        C        0.375        0.907408        0.14882942307692307        0        
C1        C        0.4375        0.907408        0.14882942307692307        0        
C_FG        C        0.5        0.907408        0.14882942307692307        0.08        
C1        C        0.5625        0.907408        0.14882942307692307        0        
C1        C        0.625        0.907408        0.14882942307692307        0        
C1        C        0.6875        0.907408        0.14882942307692307        0        
C_FG        C        0.75        0.907408        0.14882942307692307        0.08        
C1        C        0.8125        0.907408        0.14882942307692307        0        
C1        C        0.875        0.907408        0.14882942307692307        0        
C1        C        0.9375        0.907408        0.14882942307692307        0        
C2        C        0.03125        0.962963        0.14882942307692307        0        
C2        C        0.09375        0.962963        0.14882942307692307        0        
C2        C        0.15625        0.962963        0.14882942307692307        0        
C2        C        0.21875        0.962963        0.14882942307692307        0        
C2        C        0.28125        0.962963        0.14882942307692307        0        
C2        C        0.34375        0.962963        0.14882942307692307        0        
C2        C        0.40625        0.962963        0.14882942307692307        0        
C2        C        0.46875        0.962963        0.14882942307692307        0        
C2        C        0.53125        0.962963        0.14882942307692307        0        
C2        C        0.59375        0.962963        0.14882942307692307        0        
C2        C        0.65625        0.962963        0.14882942307692307        0        
C2        C        0.71875        0.962963        0.14882942307692307        0        
C2        C        0.78125        0.962963        0.14882942307692307        0        
C2        C        0.84375        0.962963        0.14882942307692307        0        
C2        C        0.9062500000000001        0.962963        0.14882942307692307        0        
C2        C        0.9687500000000001        0.962963        0.14882942307692307        0        
C3        C        0.0        0.9814809999999999        0.14882942307692307        0        
C3        C        0.0625        0.9814809999999999        0.14882942307692307        0        
C3        C        0.125        0.9814809999999999        0.14882942307692307        0        
C3        C        0.1875        0.9814809999999999        0.14882942307692307        0        
C3        C        0.25        0.9814809999999999        0.14882942307692307        0        
C3        C        0.3125        0.9814809999999999        0.14882942307692307        0        
C3        C        0.375        0.9814809999999999        0.14882942307692307        0        
C3        C        0.4375        0.9814809999999999        0.14882942307692307        0        
C3        C        0.5        0.9814809999999999        0.14882942307692307        0        
C3        C        0.5625        0.9814809999999999        0.14882942307692307        0        
C3        C        0.625        0.9814809999999999        0.14882942307692307        0        
C3        C        0.6875        0.9814809999999999        0.14882942307692307        0        
C3        C        0.75        0.9814809999999999        0.14882942307692307        0        
C3        C        0.8125        0.9814809999999999        0.14882942307692307        0        
C3        C        0.875        0.9814809999999999        0.14882942307692307        0        
C3        C        0.9375        0.9814809999999999        0.14882942307692307        0        
C4        C        0.03125        0.925925        0.14882942307692307        0        
C4        C        0.09375        0.925925        0.14882942307692307        0        
C4        C        0.15625        0.925925        0.14882942307692307        0        
C4        C        0.21875        0.925925        0.14882942307692307        0        
C4        C        0.28125        0.925925        0.14882942307692307        0        
C4        C        0.34375        0.925925        0.14882942307692307        0        
C4        C        0.40625        0.925925        0.14882942307692307        0        
C4        C        0.46875        0.925925        0.14882942307692307        0        
C4        C        0.53125        0.925925        0.14882942307692307        0        
C4        C        0.59375        0.925925        0.14882942307692307        0        
C4        C        0.65625        0.925925        0.14882942307692307        0        
C4        C        0.71875        0.925925        0.14882942307692307        0        
C4        C        0.78125        0.925925        0.14882942307692307        0        
C4        C        0.84375        0.925925        0.14882942307692307        0        
C4        C        0.9062500000000001        0.925925        0.14882942307692307        0        
C4        C        0.9687500000000001        0.925925        0.14882942307692307        0        
C1        C        0.0        0.018519        0.3635734230769231        0        
C2        C        0.03125        0.074075        0.3635734230769231        0        
C3        C        0.0        0.092592        0.3635734230769231        0        
C4        C        0.03125        0.037037        0.3635734230769231        0        
C1        C        0.0        0.12963        0.3635734230769231        0        
C2        C        0.03125        0.185185        0.3635734230769231        0        
C3        C        0.0        0.203703        0.3635734230769231        0        
C4        C        0.03125        0.148148        0.3635734230769231        0        
C1        C        0.0        0.24074099999999998        0.3635734230769231        0        
C2        C        0.03125        0.296297        0.3635734230769231        0        
C3        C        0.0        0.314815        0.3635734230769231        0        
C4        C        0.03125        0.259259        0.3635734230769231        0        
C1        C        0.0        0.351852        0.3635734230769231        0        
C2        C        0.03125        0.407408        0.3635734230769231        0        
C3        C        0.0        0.42592500000000005        0.3635734230769231        0        
C4        C        0.03125        0.37037        0.3635734230769231        0        
C1        C        0.0        0.46296300000000007        0.3635734230769231        0        
C2        C        0.03125        0.518519        0.3635734230769231        0        
C3        C        0.0        0.537037        0.3635734230769231        0        
C4        C        0.03125        0.481481        0.3635734230769231        0        
C1        C        0.0        0.574075        0.3635734230769231        0        
C2        C        0.03125        0.62963        0.3635734230769231        0        
C3        C        0.0        0.648148        0.3635734230769231        0        
C4        C        0.03125        0.592592        0.3635734230769231        0        
C1        C        0.0625        0.018519        0.3635734230769231        0        
C2        C        0.09375        0.074075        0.3635734230769231        0        
C3        C        0.0625        0.092592        0.3635734230769231        0        
C4        C        0.09375        0.037037        0.3635734230769231        0        
C1        C        0.0625        0.12963        0.3635734230769231        0        
C2        C        0.09375        0.185185        0.3635734230769231        0        
C3        C        0.0625        0.203703        0.3635734230769231        0        
C4        C        0.09375        0.148148        0.3635734230769231        0        
C1        C        0.0625        0.24074099999999998        0.3635734230769231        0        
C2        C        0.09375        0.296297        0.3635734230769231        0        
C3        C        0.0625        0.314815        0.3635734230769231        0        
C4        C        0.09375        0.259259        0.3635734230769231        0        
C1        C        0.0625        0.351852        0.3635734230769231        0        
C2        C        0.09375        0.407408        0.3635734230769231        0        
C3        C        0.0625        0.42592500000000005        0.3635734230769231        0        
C4        C        0.09375        0.37037        0.3635734230769231        0        
C1        C        0.0625        0.46296300000000007        0.3635734230769231        0        
C2        C        0.09375        0.518519        0.3635734230769231        0        
C3        C        0.0625        0.537037        0.3635734230769231        0        
C4        C        0.09375        0.481481        0.3635734230769231        0        
C1        C        0.0625        0.574075        0.3635734230769231        0        
C2        C        0.09375        0.62963        0.3635734230769231        0        
C3        C        0.0625        0.648148        0.3635734230769231        0        
C4        C        0.09375        0.592592        0.3635734230769231        0        
C1        C        0.125        0.018519        0.3635734230769231        0        
C2        C        0.15625        0.074075        0.3635734230769231        0        
C3        C        0.125        0.092592        0.3635734230769231        0        
C4        C        0.15625        0.037037        0.3635734230769231        0        
C1        C        0.125        0.12963        0.3635734230769231        0        
C2        C        0.15625        0.185185        0.3635734230769231        0        
C3        C        0.125        0.203703        0.3635734230769231        0        
C4        C        0.15625        0.148148        0.3635734230769231        0        
C1        C        0.125        0.24074099999999998        0.3635734230769231        0        
C2        C        0.15625        0.296297        0.3635734230769231        0        
C3        C        0.125        0.314815        0.3635734230769231        0        
C4        C        0.15625        0.259259        0.3635734230769231        0        
C1        C        0.125        0.351852        0.3635734230769231        0        
C2        C        0.15625        0.407408        0.3635734230769231        0        
C3        C        0.125        0.42592500000000005        0.3635734230769231        0        
C4        C        0.15625        0.37037        0.3635734230769231        0        
C1        C        0.125        0.46296300000000007        0.3635734230769231        0        
C2        C        0.15625        0.518519        0.3635734230769231        0        
C3        C        0.125        0.537037        0.3635734230769231        0        
C4        C        0.15625        0.481481        0.3635734230769231        0        
C1        C        0.125        0.574075        0.3635734230769231        0        
C2        C        0.15625        0.62963        0.3635734230769231        0        
C3        C        0.125        0.648148        0.3635734230769231        0        
C4        C        0.15625        0.592592        0.3635734230769231        0        
C1        C        0.1875        0.018519        0.3635734230769231        0        
C2        C        0.21875        0.074075        0.3635734230769231        0        
C3        C        0.1875        0.092592        0.3635734230769231        0        
C4        C        0.21875        0.037037        0.3635734230769231        0        
C1        C        0.1875        0.12963        0.3635734230769231        0        
C2        C        0.21875        0.185185        0.3635734230769231        0        
C3        C        0.1875        0.203703        0.3635734230769231        0        
C4        C        0.21875        0.148148        0.3635734230769231        0        
C1        C        0.1875        0.24074099999999998        0.3635734230769231        0        
C2        C        0.21875        0.296297        0.3635734230769231        0        
C3        C        0.1875        0.314815        0.3635734230769231        0        
C4        C        0.21875        0.259259        0.3635734230769231        0        
C1        C        0.1875        0.351852        0.3635734230769231        0        
C2        C        0.21875        0.407408        0.3635734230769231        0        
C3        C        0.1875        0.42592500000000005        0.3635734230769231        0        
C4        C        0.21875        0.37037        0.3635734230769231        0        
C1        C        0.1875        0.46296300000000007        0.3635734230769231        0        
C2        C        0.21875        0.518519        0.3635734230769231        0        
C3        C        0.1875        0.537037        0.3635734230769231        0        
C4        C        0.21875        0.481481        0.3635734230769231        0        
C1        C        0.1875        0.574075        0.3635734230769231        0        
C2        C        0.21875        0.62963        0.3635734230769231        0        
C3        C        0.1875        0.648148        0.3635734230769231        0        
C4        C        0.21875        0.592592        0.3635734230769231        0        
C1        C        0.25        0.018519        0.3635734230769231        0        
C2        C        0.28125        0.074075        0.3635734230769231        0        
C3        C        0.25        0.092592        0.3635734230769231        0        
C4        C        0.28125        0.037037        0.3635734230769231        0        
C1        C        0.25        0.12963        0.3635734230769231        0        
C2        C        0.28125        0.185185        0.3635734230769231        0        
C3        C        0.25        0.203703        0.3635734230769231        0        
C4        C        0.28125        0.148148        0.3635734230769231        0        
C1        C        0.25        0.24074099999999998        0.3635734230769231        0        
C2        C        0.28125        0.296297        0.3635734230769231        0        
C3        C        0.25        0.314815        0.3635734230769231        0        
C4        C        0.28125        0.259259        0.3635734230769231        0        
C1        C        0.25        0.351852        0.3635734230769231        0        
C2        C        0.28125        0.407408        0.3635734230769231        0        
C3        C        0.25        0.42592500000000005        0.3635734230769231        0        
C4        C        0.28125        0.37037        0.3635734230769231        0        
C1        C        0.25        0.46296300000000007        0.3635734230769231        0        
C2        C        0.28125        0.518519        0.3635734230769231        0        
C3        C        0.25        0.537037        0.3635734230769231        0        
C4        C        0.28125        0.481481        0.3635734230769231        0        
C1        C        0.25        0.574075        0.3635734230769231        0        
C2        C        0.28125        0.62963        0.3635734230769231        0        
C3        C        0.25        0.648148        0.3635734230769231        0        
C4        C        0.28125        0.592592        0.3635734230769231        0        
C1        C        0.3125        0.018519        0.3635734230769231        0        
C2        C        0.34375        0.074075        0.3635734230769231        0        
C3        C        0.3125        0.092592        0.3635734230769231        0        
C4        C        0.34375        0.037037        0.3635734230769231        0        
C1        C        0.3125        0.12963        0.3635734230769231        0        
C2        C        0.34375        0.185185        0.3635734230769231        0        
C3        C        0.3125        0.203703        0.3635734230769231        0        
C4        C        0.34375        0.148148        0.3635734230769231        0        
C1        C        0.3125        0.24074099999999998        0.3635734230769231        0        
C2        C        0.34375        0.296297        0.3635734230769231        0        
C3        C        0.3125        0.314815        0.3635734230769231        0        
C4        C        0.34375        0.259259        0.3635734230769231        0        
C1        C        0.3125        0.351852        0.3635734230769231        0        
C2        C        0.34375        0.407408        0.3635734230769231        0        
C3        C        0.3125        0.42592500000000005        0.3635734230769231        0        
C4        C        0.34375        0.37037        0.3635734230769231        0        
C1        C        0.3125        0.46296300000000007        0.3635734230769231        0        
C2        C        0.34375        0.518519        0.3635734230769231        0        
C3        C        0.3125        0.537037        0.3635734230769231        0        
C4        C        0.34375        0.481481        0.3635734230769231        0        
C1        C        0.3125        0.574075        0.3635734230769231        0        
C2        C        0.34375        0.62963        0.3635734230769231        0        
C3        C        0.3125        0.648148        0.3635734230769231        0        
C4        C        0.34375        0.592592        0.3635734230769231        0        
C1        C        0.375        0.018519        0.3635734230769231        0        
C2        C        0.40625        0.074075        0.3635734230769231        0        
C3        C        0.375        0.092592        0.3635734230769231        0        
C4        C        0.40625        0.037037        0.3635734230769231        0        
C1        C        0.375        0.12963        0.3635734230769231        0        
C2        C        0.40625        0.185185        0.3635734230769231        0        
C3        C        0.375        0.203703        0.3635734230769231        0        
C4        C        0.40625        0.148148        0.3635734230769231        0        
C1        C        0.375        0.24074099999999998        0.3635734230769231        0        
C2        C        0.40625        0.296297        0.3635734230769231        0        
C3        C        0.375        0.314815        0.3635734230769231        0        
C4        C        0.40625        0.259259        0.3635734230769231        0        
C1        C        0.375        0.351852        0.3635734230769231        0        
C2        C        0.40625        0.407408        0.3635734230769231        0        
C3        C        0.375        0.42592500000000005        0.3635734230769231        0        
C4        C        0.40625        0.37037        0.3635734230769231        0        
C1        C        0.375        0.46296300000000007        0.3635734230769231        0        
C2        C        0.40625        0.518519        0.3635734230769231        0        
C3        C        0.375        0.537037        0.3635734230769231        0        
C4        C        0.40625        0.481481        0.3635734230769231        0        
C1        C        0.375        0.574075        0.3635734230769231        0        
C2        C        0.40625        0.62963        0.3635734230769231        0        
C3        C        0.375        0.648148        0.3635734230769231        0        
C4        C        0.40625        0.592592        0.3635734230769231        0        
C1        C        0.4375        0.018519        0.3635734230769231        0        
C2        C        0.46875        0.074075        0.3635734230769231        0        
C3        C        0.4375        0.092592        0.3635734230769231        0        
C4        C        0.46875        0.037037        0.3635734230769231        0        
C1        C        0.4375        0.12963        0.3635734230769231        0        
C2        C        0.46875        0.185185        0.3635734230769231        0        
C3        C        0.4375        0.203703        0.3635734230769231        0        
C4        C        0.46875        0.148148        0.3635734230769231        0        
C1        C        0.4375        0.24074099999999998        0.3635734230769231        0        
C2        C        0.46875        0.296297        0.3635734230769231        0        
C3        C        0.4375        0.314815        0.3635734230769231        0        
C4        C        0.46875        0.259259        0.3635734230769231        0        
C1        C        0.4375        0.351852        0.3635734230769231        0        
C2        C        0.46875        0.407408        0.3635734230769231        0        
C3        C        0.4375        0.42592500000000005        0.3635734230769231        0        
C4        C        0.46875        0.37037        0.3635734230769231        0        
C1        C        0.4375        0.46296300000000007        0.3635734230769231        0        
C2        C        0.46875        0.518519        0.3635734230769231        0        
C3        C        0.4375        0.537037        0.3635734230769231        0        
C4        C        0.46875        0.481481        0.3635734230769231        0        
C1        C        0.4375        0.574075        0.3635734230769231        0        
C2        C        0.46875        0.62963        0.3635734230769231        0        
C3        C        0.4375        0.648148        0.3635734230769231        0        
C4        C        0.46875        0.592592        0.3635734230769231        0        
C1        C        0.5        0.018519        0.3635734230769231        0        
C2        C        0.53125        0.074075        0.3635734230769231        0        
C3        C        0.5        0.092592        0.3635734230769231        0        
C4        C        0.53125        0.037037        0.3635734230769231        0        
C1        C        0.5        0.12963        0.3635734230769231        0        
C2        C        0.53125        0.185185        0.3635734230769231        0        
C3        C        0.5        0.203703        0.3635734230769231        0        
C4        C        0.53125        0.148148        0.3635734230769231        0        
C1        C        0.5        0.24074099999999998        0.3635734230769231        0        
C2        C        0.53125        0.296297        0.3635734230769231        0        
C3        C        0.5        0.314815        0.3635734230769231        0        
C4        C        0.53125        0.259259        0.3635734230769231        0        
C1        C        0.5        0.351852        0.3635734230769231        0        
C2        C        0.53125        0.407408        0.3635734230769231        0        
C3        C        0.5        0.42592500000000005        0.3635734230769231        0        
C4        C        0.53125        0.37037        0.3635734230769231        0        
C1        C        0.5        0.46296300000000007        0.3635734230769231        0        
C2        C        0.53125        0.518519        0.3635734230769231        0        
C3        C        0.5        0.537037        0.3635734230769231        0        
C4        C        0.53125        0.481481        0.3635734230769231        0        
C1        C        0.5        0.574075        0.3635734230769231        0        
C2        C        0.53125        0.62963        0.3635734230769231        0        
C3        C        0.5        0.648148        0.3635734230769231        0        
C4        C        0.53125        0.592592        0.3635734230769231        0        
C1        C        0.5625        0.018519        0.3635734230769231        0        
C2        C        0.59375        0.074075        0.3635734230769231        0        
C3        C        0.5625        0.092592        0.3635734230769231        0        
C4        C        0.59375        0.037037        0.3635734230769231        0        
C1        C        0.5625        0.12963        0.3635734230769231        0        
C2        C        0.59375        0.185185        0.3635734230769231        0        
C3        C        0.5625        0.203703        0.3635734230769231        0        
C4        C        0.59375        0.148148        0.3635734230769231        0        
C1        C        0.5625        0.24074099999999998        0.3635734230769231        0        
C2        C        0.59375        0.296297        0.3635734230769231        0        
C3        C        0.5625        0.314815        0.3635734230769231        0        
C4        C        0.59375        0.259259        0.3635734230769231        0        
C1        C        0.5625        0.351852        0.3635734230769231        0        
C2        C        0.59375        0.407408        0.3635734230769231        0        
C3        C        0.5625        0.42592500000000005        0.3635734230769231        0        
C4        C        0.59375        0.37037        0.3635734230769231        0        
C1        C        0.5625        0.46296300000000007        0.3635734230769231        0        
C2        C        0.59375        0.518519        0.3635734230769231        0        
C3        C        0.5625        0.537037        0.3635734230769231        0        
C4        C        0.59375        0.481481        0.3635734230769231        0        
C1        C        0.5625        0.574075        0.3635734230769231        0        
C2        C        0.59375        0.62963        0.3635734230769231        0        
C3        C        0.5625        0.648148        0.3635734230769231        0        
C4        C        0.59375        0.592592        0.3635734230769231        0        
C1        C        0.625        0.018519        0.3635734230769231        0        
C2        C        0.65625        0.074075        0.3635734230769231        0        
C3        C        0.625        0.092592        0.3635734230769231        0        
C4        C        0.65625        0.037037        0.3635734230769231        0        
C1        C        0.625        0.12963        0.3635734230769231        0        
C2        C        0.65625        0.185185        0.3635734230769231        0        
C3        C        0.625        0.203703        0.3635734230769231        0        
C4        C        0.65625        0.148148        0.3635734230769231        0        
C1        C        0.625        0.24074099999999998        0.3635734230769231        0        
C2        C        0.65625        0.296297        0.3635734230769231        0        
C3        C        0.625        0.314815        0.3635734230769231        0        
C4        C        0.65625        0.259259        0.3635734230769231        0        
C1        C        0.625        0.351852        0.3635734230769231        0        
C2        C        0.65625        0.407408        0.3635734230769231        0        
C3        C        0.625        0.42592500000000005        0.3635734230769231        0        
C4        C        0.65625        0.37037        0.3635734230769231        0        
C1        C        0.625        0.46296300000000007        0.3635734230769231        0        
C2        C        0.65625        0.518519        0.3635734230769231        0        
C3        C        0.625        0.537037        0.3635734230769231        0        
C4        C        0.65625        0.481481        0.3635734230769231        0        
C1        C        0.625        0.574075        0.3635734230769231        0        
C2        C        0.65625        0.62963        0.3635734230769231        0        
C3        C        0.625        0.648148        0.3635734230769231        0        
C4        C        0.65625        0.592592        0.3635734230769231        0        
C1        C        0.6875        0.018519        0.3635734230769231        0        
C2        C        0.71875        0.074075        0.3635734230769231        0        
C3        C        0.6875        0.092592        0.3635734230769231        0        
C4        C        0.71875        0.037037        0.3635734230769231        0        
C1        C        0.6875        0.12963        0.3635734230769231        0        
C2        C        0.71875        0.185185        0.3635734230769231        0        
C3        C        0.6875        0.203703        0.3635734230769231        0        
C4        C        0.71875        0.148148        0.3635734230769231        0        
C1        C        0.6875        0.24074099999999998        0.3635734230769231        0        
C2        C        0.71875        0.296297        0.3635734230769231        0        
C3        C        0.6875        0.314815        0.3635734230769231        0        
C4        C        0.71875        0.259259        0.3635734230769231        0        
C1        C        0.6875        0.351852        0.3635734230769231        0        
C2        C        0.71875        0.407408        0.3635734230769231        0        
C3        C        0.6875        0.42592500000000005        0.3635734230769231        0        
C4        C        0.71875        0.37037        0.3635734230769231        0        
C1        C        0.6875        0.46296300000000007        0.3635734230769231        0        
C2        C        0.71875        0.518519        0.3635734230769231        0        
C3        C        0.6875        0.537037        0.3635734230769231        0        
C4        C        0.71875        0.481481        0.3635734230769231        0        
C1        C        0.6875        0.574075        0.3635734230769231        0        
C2        C        0.71875        0.62963        0.3635734230769231        0        
C3        C        0.6875        0.648148        0.3635734230769231        0        
C4        C        0.71875        0.592592        0.3635734230769231        0        
C1        C        0.75        0.018519        0.3635734230769231        0        
C2        C        0.78125        0.074075        0.3635734230769231        0        
C3        C        0.75        0.092592        0.3635734230769231        0        
C4        C        0.78125        0.037037        0.3635734230769231        0        
C1        C        0.75        0.12963        0.3635734230769231        0        
C2        C        0.78125        0.185185        0.3635734230769231        0        
C3        C        0.75        0.203703        0.3635734230769231        0        
C4        C        0.78125        0.148148        0.3635734230769231        0        
C1        C        0.75        0.24074099999999998        0.3635734230769231        0        
C2        C        0.78125        0.296297        0.3635734230769231        0        
C3        C        0.75        0.314815        0.3635734230769231        0        
C4        C        0.78125        0.259259        0.3635734230769231        0        
C1        C        0.75        0.351852        0.3635734230769231        0        
C2        C        0.78125        0.407408        0.3635734230769231        0        
C3        C        0.75        0.42592500000000005        0.3635734230769231        0        
C4        C        0.78125        0.37037        0.3635734230769231        0        
C1        C        0.75        0.46296300000000007        0.3635734230769231        0        
C2        C        0.78125        0.518519        0.3635734230769231        0        
C3        C        0.75        0.537037        0.3635734230769231        0        
C4        C        0.78125        0.481481        0.3635734230769231        0        
C1        C        0.75        0.574075        0.3635734230769231        0        
C2        C        0.78125        0.62963        0.3635734230769231        0        
C3        C        0.75        0.648148        0.3635734230769231        0        
C4        C        0.78125        0.592592        0.3635734230769231        0        
C1        C        0.8125        0.018519        0.3635734230769231        0        
C2        C        0.84375        0.074075        0.3635734230769231        0        
C3        C        0.8125        0.092592        0.3635734230769231        0        
C4        C        0.84375        0.037037        0.3635734230769231        0        
C1        C        0.8125        0.12963        0.3635734230769231        0        
C2        C        0.84375        0.185185        0.3635734230769231        0        
C3        C        0.8125        0.203703        0.3635734230769231        0        
C4        C        0.84375        0.148148        0.3635734230769231        0        
C1        C        0.8125        0.24074099999999998        0.3635734230769231        0        
C2        C        0.84375        0.296297        0.3635734230769231        0        
C3        C        0.8125        0.314815        0.3635734230769231        0        
C4        C        0.84375        0.259259        0.3635734230769231        0        
C1        C        0.8125        0.351852        0.3635734230769231        0        
C2        C        0.84375        0.407408        0.3635734230769231        0        
C3        C        0.8125        0.42592500000000005        0.3635734230769231        0        
C4        C        0.84375        0.37037        0.3635734230769231        0        
C1        C        0.8125        0.46296300000000007        0.3635734230769231        0        
C2        C        0.84375        0.518519        0.3635734230769231        0        
C3        C        0.8125        0.537037        0.3635734230769231        0        
C4        C        0.84375        0.481481        0.3635734230769231        0        
C1        C        0.8125        0.574075        0.3635734230769231        0        
C2        C        0.84375        0.62963        0.3635734230769231        0        
C3        C        0.8125        0.648148        0.3635734230769231        0        
C4        C        0.84375        0.592592        0.3635734230769231        0        
C1        C        0.875        0.018519        0.3635734230769231        0        
C2        C        0.9062500000000001        0.074075        0.3635734230769231        0        
C3        C        0.875        0.092592        0.3635734230769231        0        
C4        C        0.9062500000000001        0.037037        0.3635734230769231        0        
C1        C        0.875        0.12963        0.3635734230769231        0        
C2        C        0.9062500000000001        0.185185        0.3635734230769231        0        
C3        C        0.875        0.203703        0.3635734230769231        0        
C4        C        0.9062500000000001        0.148148        0.3635734230769231        0        
C1        C        0.875        0.24074099999999998        0.3635734230769231        0        
C2        C        0.9062500000000001        0.296297        0.3635734230769231        0        
C3        C        0.875        0.314815        0.3635734230769231        0        
C4        C        0.9062500000000001        0.259259        0.3635734230769231        0        
C1        C        0.875        0.351852        0.3635734230769231        0        
C2        C        0.9062500000000001        0.407408        0.3635734230769231        0        
C3        C        0.875        0.42592500000000005        0.3635734230769231        0        
C4        C        0.9062500000000001        0.37037        0.3635734230769231        0        
C1        C        0.875        0.46296300000000007        0.3635734230769231        0        
C2        C        0.9062500000000001        0.518519        0.3635734230769231        0        
C3        C        0.875        0.537037        0.3635734230769231        0        
C4        C        0.9062500000000001        0.481481        0.3635734230769231        0        
C1        C        0.875        0.574075        0.3635734230769231        0        
C2        C        0.9062500000000001        0.62963        0.3635734230769231        0        
C3        C        0.875        0.648148        0.3635734230769231        0        
C4        C        0.9062500000000001        0.592592        0.3635734230769231        0        
C1        C        0.9375        0.018519        0.3635734230769231        0        
C2        C        0.9687500000000001        0.074075        0.3635734230769231        0        
C3        C        0.9375        0.092592        0.3635734230769231        0        
C4        C        0.9687500000000001        0.037037        0.3635734230769231        0        
C1        C        0.9375        0.12963        0.3635734230769231        0        
C2        C        0.9687500000000001        0.185185        0.3635734230769231        0        
C3        C        0.9375        0.203703        0.3635734230769231        0        
C4        C        0.9687500000000001        0.148148        0.3635734230769231        0        
C1        C        0.9375        0.24074099999999998        0.3635734230769231        0        
C2        C        0.9687500000000001        0.296297        0.3635734230769231        0        
C3        C        0.9375        0.314815        0.3635734230769231        0        
C4        C        0.9687500000000001        0.259259        0.3635734230769231        0        
C1        C        0.9375        0.351852        0.3635734230769231        0        
C2        C        0.9687500000000001        0.407408        0.3635734230769231        0        
C3        C        0.9375        0.42592500000000005        0.3635734230769231        0        
C4        C        0.9687500000000001        0.37037        0.3635734230769231        0        
C1        C        0.9375        0.46296300000000007        0.3635734230769231        0        
C2        C        0.9687500000000001        0.518519        0.3635734230769231        0        
C3        C        0.9375        0.537037        0.3635734230769231        0        
C4        C        0.9687500000000001        0.481481        0.3635734230769231        0        
C1        C        0.9375        0.574075        0.3635734230769231        0        
C2        C        0.9687500000000001        0.62963        0.3635734230769231        0        
C3        C        0.9375        0.648148        0.3635734230769231        0        
C4        C        0.9687500000000001        0.592592        0.3635734230769231        0        
C1        C        0.0        0.685186        0.3635734230769231        0        
C1        C        0.0625        0.685186        0.3635734230769231        0        
C1        C        0.125        0.685186        0.3635734230769231        0        
C1        C        0.1875        0.685186        0.3635734230769231        0        
C1        C        0.25        0.685186        0.3635734230769231        0        
C1        C        0.3125        0.685186        0.3635734230769231        0        
C1        C        0.375        0.685186        0.3635734230769231        0        
C1        C        0.4375        0.685186        0.3635734230769231        0        
C1        C        0.5        0.685186        0.3635734230769231        0        
C1        C        0.5625        0.685186        0.3635734230769231        0        
C1        C        0.625        0.685186        0.3635734230769231        0        
C1        C        0.6875        0.685186        0.3635734230769231        0        
C1        C        0.75        0.685186        0.3635734230769231        0        
C1        C        0.8125        0.685186        0.3635734230769231        0        
C1        C        0.875        0.685186        0.3635734230769231        0        
C1        C        0.9375        0.685186        0.3635734230769231        0        
C2        C        0.03125        0.740741        0.3635734230769231        0        
C2        C        0.09375        0.740741        0.3635734230769231        0        
C2        C        0.15625        0.740741        0.3635734230769231        0        
C2        C        0.21875        0.740741        0.3635734230769231        0        
C2        C        0.28125        0.740741        0.3635734230769231        0        
C2        C        0.34375        0.740741        0.3635734230769231        0        
C2        C        0.40625        0.740741        0.3635734230769231        0        
C2        C        0.46875        0.740741        0.3635734230769231        0        
C2        C        0.53125        0.740741        0.3635734230769231        0        
C2        C        0.59375        0.740741        0.3635734230769231        0        
C2        C        0.65625        0.740741        0.3635734230769231        0        
C2        C        0.71875        0.740741        0.3635734230769231        0        
C2        C        0.78125        0.740741        0.3635734230769231        0        
C2        C        0.84375        0.740741        0.3635734230769231        0        
C2        C        0.9062500000000001        0.740741        0.3635734230769231        0        
C2        C        0.9687500000000001        0.740741        0.3635734230769231        0        
C3        C        0.0        0.759259        0.3635734230769231        0        
C3        C        0.0625        0.759259        0.3635734230769231        0        
C3        C        0.125        0.759259        0.3635734230769231        0        
C3        C        0.1875        0.759259        0.3635734230769231        0        
C3        C        0.25        0.759259        0.3635734230769231        0        
C3        C        0.3125        0.759259        0.3635734230769231        0        
C3        C        0.375        0.759259        0.3635734230769231        0        
C3        C        0.4375        0.759259        0.3635734230769231        0        
C3        C        0.5        0.759259        0.3635734230769231        0        
C3        C        0.5625        0.759259        0.3635734230769231        0        
C3        C        0.625        0.759259        0.3635734230769231        0        
C3        C        0.6875        0.759259        0.3635734230769231        0        
C3        C        0.75        0.759259        0.3635734230769231        0        
C3        C        0.8125        0.759259        0.3635734230769231        0        
C3        C        0.875        0.759259        0.3635734230769231        0        
C3        C        0.9375        0.759259        0.3635734230769231        0        
C4        C        0.03125        0.703703        0.3635734230769231        0        
C4        C        0.09375        0.703703        0.3635734230769231        0        
C4        C        0.15625        0.703703        0.3635734230769231        0        
C4        C        0.21875        0.703703        0.3635734230769231        0        
C4        C        0.28125        0.703703        0.3635734230769231        0        
C4        C        0.34375        0.703703        0.3635734230769231        0        
C4        C        0.40625        0.703703        0.3635734230769231        0        
C4        C        0.46875        0.703703        0.3635734230769231        0        
C4        C        0.53125        0.703703        0.3635734230769231        0        
C4        C        0.59375        0.703703        0.3635734230769231        0        
C4        C        0.65625        0.703703        0.3635734230769231        0        
C4        C        0.71875        0.703703        0.3635734230769231        0        
C4        C        0.78125        0.703703        0.3635734230769231        0        
C4        C        0.84375        0.703703        0.3635734230769231        0        
C4        C        0.9062500000000001        0.703703        0.3635734230769231        0        
C4        C        0.9687500000000001        0.703703        0.3635734230769231        0        
C1        C        0.0        0.796297        0.3635734230769231        0        
C1        C        0.0625        0.796297        0.3635734230769231        0        
C1        C        0.125        0.796297        0.3635734230769231        0        
C1        C        0.1875        0.796297        0.3635734230769231        0        
C1        C        0.25        0.796297        0.3635734230769231        0        
C1        C        0.3125        0.796297        0.3635734230769231        0        
C1        C        0.375        0.796297        0.3635734230769231        0        
C1        C        0.4375        0.796297        0.3635734230769231        0        
C1        C        0.5        0.796297        0.3635734230769231        0        
C1        C        0.5625        0.796297        0.3635734230769231        0        
C1        C        0.625        0.796297        0.3635734230769231        0        
C1        C        0.6875        0.796297        0.3635734230769231        0        
C1        C        0.75        0.796297        0.3635734230769231        0        
C1        C        0.8125        0.796297        0.3635734230769231        0        
C1        C        0.875        0.796297        0.3635734230769231        0        
C1        C        0.9375        0.796297        0.3635734230769231        0        
C2        C        0.03125        0.851852        0.3635734230769231        0        
C2        C        0.09375        0.851852        0.3635734230769231        0        
C2        C        0.15625        0.851852        0.3635734230769231        0        
C2        C        0.21875        0.851852        0.3635734230769231        0        
C2        C        0.28125        0.851852        0.3635734230769231        0        
C2        C        0.34375        0.851852        0.3635734230769231        0        
C2        C        0.40625        0.851852        0.3635734230769231        0        
C2        C        0.46875        0.851852        0.3635734230769231        0        
C2        C        0.53125        0.851852        0.3635734230769231        0        
C2        C        0.59375        0.851852        0.3635734230769231        0        
C2        C        0.65625        0.851852        0.3635734230769231        0        
C2        C        0.71875        0.851852        0.3635734230769231        0        
C2        C        0.78125        0.851852        0.3635734230769231        0        
C2        C        0.84375        0.851852        0.3635734230769231        0        
C2        C        0.9062500000000001        0.851852        0.3635734230769231        0        
C2        C        0.9687500000000001        0.851852        0.3635734230769231        0        
C3        C        0.0        0.87037        0.3635734230769231        0        
C3        C        0.0625        0.87037        0.3635734230769231        0        
C3        C        0.125        0.87037        0.3635734230769231        0        
C3        C        0.1875        0.87037        0.3635734230769231        0        
C3        C        0.25        0.87037        0.3635734230769231        0        
C3        C        0.3125        0.87037        0.3635734230769231        0        
C3        C        0.375        0.87037        0.3635734230769231        0        
C3        C        0.4375        0.87037        0.3635734230769231        0        
C3        C        0.5        0.87037        0.3635734230769231        0        
C3        C        0.5625        0.87037        0.3635734230769231        0        
C3        C        0.625        0.87037        0.3635734230769231        0        
C3        C        0.6875        0.87037        0.3635734230769231        0        
C3        C        0.75        0.87037        0.3635734230769231        0        
C3        C        0.8125        0.87037        0.3635734230769231        0        
C3        C        0.875        0.87037        0.3635734230769231        0        
C3        C        0.9375        0.87037        0.3635734230769231        0        
C4        C        0.03125        0.814814        0.3635734230769231        0        
C4        C        0.09375        0.814814        0.3635734230769231        0        
C4        C        0.15625        0.814814        0.3635734230769231        0        
C4        C        0.21875        0.814814        0.3635734230769231        0        
C4        C        0.28125        0.814814        0.3635734230769231        0        
C4        C        0.34375        0.814814        0.3635734230769231        0        
C4        C        0.40625        0.814814        0.3635734230769231        0        
C4        C        0.46875        0.814814        0.3635734230769231        0        
C4        C        0.53125        0.814814        0.3635734230769231        0        
C4        C        0.59375        0.814814        0.3635734230769231        0        
C4        C        0.65625        0.814814        0.3635734230769231        0        
C4        C        0.71875        0.814814        0.3635734230769231        0        
C4        C        0.78125        0.814814        0.3635734230769231        0        
C4        C        0.84375        0.814814        0.3635734230769231        0        
C4        C        0.9062500000000001        0.814814        0.3635734230769231        0        
C4        C        0.9687500000000001        0.814814        0.3635734230769231        0        
C1        C        0.0        0.907408        0.3635734230769231        0        
C1        C        0.0625        0.907408        0.3635734230769231        0        
C1        C        0.125        0.907408        0.3635734230769231        0        
C1        C        0.1875        0.907408        0.3635734230769231        0        
C1        C        0.25        0.907408        0.3635734230769231        0        
C1        C        0.3125        0.907408        0.3635734230769231        0        
C1        C        0.375        0.907408        0.3635734230769231        0        
C1        C        0.4375        0.907408        0.3635734230769231        0        
C1        C        0.5        0.907408        0.3635734230769231        0        
C1        C        0.5625        0.907408        0.3635734230769231        0        
C1        C        0.625        0.907408        0.3635734230769231        0        
C1        C        0.6875        0.907408        0.3635734230769231        0        
C1        C        0.75        0.907408        0.3635734230769231        0        
C1        C        0.8125        0.907408        0.3635734230769231        0        
C1        C        0.875        0.907408        0.3635734230769231        0        
C1        C        0.9375        0.907408        0.3635734230769231        0        
C2        C        0.03125        0.962963        0.3635734230769231        0        
C2        C        0.09375        0.962963        0.3635734230769231        0        
C2        C        0.15625        0.962963        0.3635734230769231        0        
C2        C        0.21875        0.962963        0.3635734230769231        0        
C2        C        0.28125        0.962963        0.3635734230769231        0        
C2        C        0.34375        0.962963        0.3635734230769231        0        
C2        C        0.40625        0.962963        0.3635734230769231        0        
C2        C        0.46875        0.962963        0.3635734230769231        0        
C2        C        0.53125        0.962963        0.3635734230769231        0        
C2        C        0.59375        0.962963        0.3635734230769231        0        
C2        C        0.65625        0.962963        0.3635734230769231        0        
C2        C        0.71875        0.962963        0.3635734230769231        0        
C2        C        0.78125        0.962963        0.3635734230769231        0        
C2        C        0.84375        0.962963        0.3635734230769231        0        
C2        C        0.9062500000000001        0.962963        0.3635734230769231        0        
C2        C        0.9687500000000001        0.962963        0.3635734230769231        0        
C3        C        0.0        0.9814809999999999        0.3635734230769231        0        
C3        C        0.0625        0.9814809999999999        0.3635734230769231        0        
C3        C        0.125        0.9814809999999999        0.3635734230769231        0        
C3        C        0.1875        0.9814809999999999        0.3635734230769231        0        
C3        C        0.25        0.9814809999999999        0.3635734230769231        0        
C3        C        0.3125        0.9814809999999999        0.3635734230769231        0        
C3        C        0.375        0.9814809999999999        0.3635734230769231        0        
C3        C        0.4375        0.9814809999999999        0.3635734230769231        0        
C3        C        0.5        0.9814809999999999        0.3635734230769231        0        
C3        C        0.5625        0.9814809999999999        0.3635734230769231        0        
C3        C        0.625        0.9814809999999999        0.3635734230769231        0        
C3        C        0.6875        0.9814809999999999        0.3635734230769231        0        
C3        C        0.75        0.9814809999999999        0.3635734230769231        0        
C3        C        0.8125        0.9814809999999999        0.3635734230769231        0        
C3        C        0.875        0.9814809999999999        0.3635734230769231        0        
C3        C        0.9375        0.9814809999999999        0.3635734230769231        0        
C4        C        0.03125        0.925925        0.3635734230769231        0        
C4        C        0.09375        0.925925        0.3635734230769231        0        
C4        C        0.15625        0.925925        0.3635734230769231        0        
C4        C        0.21875        0.925925        0.3635734230769231        0        
C4        C        0.28125        0.925925        0.3635734230769231        0        
C4        C        0.34375        0.925925        0.3635734230769231        0        
C4        C        0.40625        0.925925        0.3635734230769231        0        
C4        C        0.46875        0.925925        0.3635734230769231        0        
C4        C        0.53125        0.925925        0.3635734230769231        0        
C4        C        0.59375        0.925925        0.3635734230769231        0        
C4        C        0.65625        0.925925        0.3635734230769231        0        
C4        C        0.71875        0.925925        0.3635734230769231        0        
C4        C        0.78125        0.925925        0.3635734230769231        0        
C4        C        0.84375        0.925925        0.3635734230769231        0        
C4        C        0.9062500000000001        0.925925        0.3635734230769231        0        
C4        C        0.9687500000000001        0.925925        0.3635734230769231        0        
C_FG        C        0.0        0.018519        0.5783164230769231        0.08        
C2        C        0.03125        0.074075        0.5783164230769231        0        
C3        C        0.0        0.092592        0.5783164230769231        0        
C4        C        0.03125        0.037037        0.5783164230769231        0        
C_FG        C        0.0        0.12963        0.5783164230769231        0.08        
C2        C        0.03125        0.185185        0.5783164230769231        0        
C3        C        0.0        0.203703        0.5783164230769231        0        
C4        C        0.03125        0.148148        0.5783164230769231        0        
C_FG        C        0.0        0.24074099999999998        0.5783164230769231        0.08        
C2        C        0.03125        0.296297        0.5783164230769231        0        
C3        C        0.0        0.314815        0.5783164230769231        0        
C4        C        0.03125        0.259259        0.5783164230769231        0        
C_FG        C        0.0        0.351852        0.5783164230769231        0.08        
C2        C        0.03125        0.407408        0.5783164230769231        0        
C3        C        0.0        0.42592500000000005        0.5783164230769231        0        
C4        C        0.03125        0.37037        0.5783164230769231        0        
C_FG        C        0.0        0.46296300000000007        0.5783164230769231        0.08        
C2        C        0.03125        0.518519        0.5783164230769231        0        
C3        C        0.0        0.537037        0.5783164230769231        0        
C4        C        0.03125        0.481481        0.5783164230769231        0        
C_FG        C        0.0        0.574075        0.5783164230769231        0.08        
C2        C        0.03125        0.62963        0.5783164230769231        0        
C3        C        0.0        0.648148        0.5783164230769231        0        
C4        C        0.03125        0.592592        0.5783164230769231        0        
C1        C        0.0625        0.018519        0.5783164230769231        0        
C2        C        0.09375        0.074075        0.5783164230769231        0        
C3        C        0.0625        0.092592        0.5783164230769231        0        
C4        C        0.09375        0.037037        0.5783164230769231        0        
C1        C        0.0625        0.12963        0.5783164230769231        0        
C2        C        0.09375        0.185185        0.5783164230769231        0        
C3        C        0.0625        0.203703        0.5783164230769231        0        
C4        C        0.09375        0.148148        0.5783164230769231        0        
C1        C        0.0625        0.24074099999999998        0.5783164230769231        0        
C2        C        0.09375        0.296297        0.5783164230769231        0        
C3        C        0.0625        0.314815        0.5783164230769231        0        
C4        C        0.09375        0.259259        0.5783164230769231        0        
C1        C        0.0625        0.351852        0.5783164230769231        0        
C2        C        0.09375        0.407408        0.5783164230769231        0        
C3        C        0.0625        0.42592500000000005        0.5783164230769231        0        
C4        C        0.09375        0.37037        0.5783164230769231        0        
C1        C        0.0625        0.46296300000000007        0.5783164230769231        0        
C2        C        0.09375        0.518519        0.5783164230769231        0        
C3        C        0.0625        0.537037        0.5783164230769231        0        
C4        C        0.09375        0.481481        0.5783164230769231        0        
C1        C        0.0625        0.574075        0.5783164230769231        0        
C2        C        0.09375        0.62963        0.5783164230769231        0        
C3        C        0.0625        0.648148        0.5783164230769231        0        
C4        C        0.09375        0.592592        0.5783164230769231        0        
C1        C        0.125        0.018519        0.5783164230769231        0        
C2        C        0.15625        0.074075        0.5783164230769231        0        
C3        C        0.125        0.092592        0.5783164230769231        0        
C4        C        0.15625        0.037037        0.5783164230769231        0        
C1        C        0.125        0.12963        0.5783164230769231        0        
C2        C        0.15625        0.185185        0.5783164230769231        0        
C3        C        0.125        0.203703        0.5783164230769231        0        
C4        C        0.15625        0.148148        0.5783164230769231        0        
C1        C        0.125        0.24074099999999998        0.5783164230769231        0        
C2        C        0.15625        0.296297        0.5783164230769231        0        
C3        C        0.125        0.314815        0.5783164230769231        0        
C4        C        0.15625        0.259259        0.5783164230769231        0        
C1        C        0.125        0.351852        0.5783164230769231        0        
C2        C        0.15625        0.407408        0.5783164230769231        0        
C3        C        0.125        0.42592500000000005        0.5783164230769231        0        
C4        C        0.15625        0.37037        0.5783164230769231        0        
C1        C        0.125        0.46296300000000007        0.5783164230769231        0        
C2        C        0.15625        0.518519        0.5783164230769231        0        
C3        C        0.125        0.537037        0.5783164230769231        0        
C4        C        0.15625        0.481481        0.5783164230769231        0        
C1        C        0.125        0.574075        0.5783164230769231        0        
C2        C        0.15625        0.62963        0.5783164230769231        0        
C3        C        0.125        0.648148        0.5783164230769231        0        
C4        C        0.15625        0.592592        0.5783164230769231        0        
C1        C        0.1875        0.018519        0.5783164230769231        0        
C2        C        0.21875        0.074075        0.5783164230769231        0        
C3        C        0.1875        0.092592        0.5783164230769231        0        
C4        C        0.21875        0.037037        0.5783164230769231        0        
C1        C        0.1875        0.12963        0.5783164230769231        0        
C2        C        0.21875        0.185185        0.5783164230769231        0        
C3        C        0.1875        0.203703        0.5783164230769231        0        
C4        C        0.21875        0.148148        0.5783164230769231        0        
C1        C        0.1875        0.24074099999999998        0.5783164230769231        0        
C2        C        0.21875        0.296297        0.5783164230769231        0        
C3        C        0.1875        0.314815        0.5783164230769231        0        
C4        C        0.21875        0.259259        0.5783164230769231        0        
C1        C        0.1875        0.351852        0.5783164230769231        0        
C2        C        0.21875        0.407408        0.5783164230769231        0        
C3        C        0.1875        0.42592500000000005        0.5783164230769231        0        
C4        C        0.21875        0.37037        0.5783164230769231        0        
C1        C        0.1875        0.46296300000000007        0.5783164230769231        0        
C2        C        0.21875        0.518519        0.5783164230769231        0        
C3        C        0.1875        0.537037        0.5783164230769231        0        
C4        C        0.21875        0.481481        0.5783164230769231        0        
C1        C        0.1875        0.574075        0.5783164230769231        0        
C2        C        0.21875        0.62963        0.5783164230769231        0        
C3        C        0.1875        0.648148        0.5783164230769231        0        
C4        C        0.21875        0.592592        0.5783164230769231        0        
C_FG        C        0.25        0.018519        0.5783164230769231        0.08        
C2        C        0.28125        0.074075        0.5783164230769231        0        
C3        C        0.25        0.092592        0.5783164230769231        0        
C4        C        0.28125        0.037037        0.5783164230769231        0        
C_FG        C        0.25        0.12963        0.5783164230769231        0.08        
C2        C        0.28125        0.185185        0.5783164230769231        0        
C3        C        0.25        0.203703        0.5783164230769231        0        
C4        C        0.28125        0.148148        0.5783164230769231        0        
C_FG        C        0.25        0.24074099999999998        0.5783164230769231        0.08        
C2        C        0.28125        0.296297        0.5783164230769231        0        
C3        C        0.25        0.314815        0.5783164230769231        0        
C4        C        0.28125        0.259259        0.5783164230769231        0        
C_FG        C        0.25        0.351852        0.5783164230769231        0.08        
C2        C        0.28125        0.407408        0.5783164230769231        0        
C3        C        0.25        0.42592500000000005        0.5783164230769231        0        
C4        C        0.28125        0.37037        0.5783164230769231        0        
C_FG        C        0.25        0.46296300000000007        0.5783164230769231        0.08        
C2        C        0.28125        0.518519        0.5783164230769231        0        
C3        C        0.25        0.537037        0.5783164230769231        0        
C4        C        0.28125        0.481481        0.5783164230769231        0        
C_FG        C        0.25        0.574075        0.5783164230769231        0.08        
C2        C        0.28125        0.62963        0.5783164230769231        0        
C3        C        0.25        0.648148        0.5783164230769231        0        
C4        C        0.28125        0.592592        0.5783164230769231        0        
C1        C        0.3125        0.018519        0.5783164230769231        0        
C2        C        0.34375        0.074075        0.5783164230769231        0        
C3        C        0.3125        0.092592        0.5783164230769231        0        
C4        C        0.34375        0.037037        0.5783164230769231        0        
C1        C        0.3125        0.12963        0.5783164230769231        0        
C2        C        0.34375        0.185185        0.5783164230769231        0        
C3        C        0.3125        0.203703        0.5783164230769231        0        
C4        C        0.34375        0.148148        0.5783164230769231        0        
C1        C        0.3125        0.24074099999999998        0.5783164230769231        0        
C2        C        0.34375        0.296297        0.5783164230769231        0        
C3        C        0.3125        0.314815        0.5783164230769231        0        
C4        C        0.34375        0.259259        0.5783164230769231        0        
C1        C        0.3125        0.351852        0.5783164230769231        0        
C2        C        0.34375        0.407408        0.5783164230769231        0        
C3        C        0.3125        0.42592500000000005        0.5783164230769231        0        
C4        C        0.34375        0.37037        0.5783164230769231        0        
C1        C        0.3125        0.46296300000000007        0.5783164230769231        0        
C2        C        0.34375        0.518519        0.5783164230769231        0        
C3        C        0.3125        0.537037        0.5783164230769231        0        
C4        C        0.34375        0.481481        0.5783164230769231        0        
C1        C        0.3125        0.574075        0.5783164230769231        0        
C2        C        0.34375        0.62963        0.5783164230769231        0        
C3        C        0.3125        0.648148        0.5783164230769231        0        
C4        C        0.34375        0.592592        0.5783164230769231        0        
C1        C        0.375        0.018519        0.5783164230769231        0        
C2        C        0.40625        0.074075        0.5783164230769231        0        
C3        C        0.375        0.092592        0.5783164230769231        0        
C4        C        0.40625        0.037037        0.5783164230769231        0        
C1        C        0.375        0.12963        0.5783164230769231        0        
C2        C        0.40625        0.185185        0.5783164230769231        0        
C3        C        0.375        0.203703        0.5783164230769231        0        
C4        C        0.40625        0.148148        0.5783164230769231        0        
C1        C        0.375        0.24074099999999998        0.5783164230769231        0        
C2        C        0.40625        0.296297        0.5783164230769231        0        
C3        C        0.375        0.314815        0.5783164230769231        0        
C4        C        0.40625        0.259259        0.5783164230769231        0        
C1        C        0.375        0.351852        0.5783164230769231        0        
C2        C        0.40625        0.407408        0.5783164230769231        0        
C3        C        0.375        0.42592500000000005        0.5783164230769231        0        
C4        C        0.40625        0.37037        0.5783164230769231        0        
C1        C        0.375        0.46296300000000007        0.5783164230769231        0        
C2        C        0.40625        0.518519        0.5783164230769231        0        
C3        C        0.375        0.537037        0.5783164230769231        0        
C4        C        0.40625        0.481481        0.5783164230769231        0        
C1        C        0.375        0.574075        0.5783164230769231        0        
C2        C        0.40625        0.62963        0.5783164230769231        0        
C3        C        0.375        0.648148        0.5783164230769231        0        
C4        C        0.40625        0.592592        0.5783164230769231        0        
C1        C        0.4375        0.018519        0.5783164230769231        0        
C2        C        0.46875        0.074075        0.5783164230769231        0        
C3        C        0.4375        0.092592        0.5783164230769231        0        
C4        C        0.46875        0.037037        0.5783164230769231        0        
C1        C        0.4375        0.12963        0.5783164230769231        0        
C2        C        0.46875        0.185185        0.5783164230769231        0        
C3        C        0.4375        0.203703        0.5783164230769231        0        
C4        C        0.46875        0.148148        0.5783164230769231        0        
C1        C        0.4375        0.24074099999999998        0.5783164230769231        0        
C2        C        0.46875        0.296297        0.5783164230769231        0        
C3        C        0.4375        0.314815        0.5783164230769231        0        
C4        C        0.46875        0.259259        0.5783164230769231        0        
C1        C        0.4375        0.351852        0.5783164230769231        0        
C2        C        0.46875        0.407408        0.5783164230769231        0        
C3        C        0.4375        0.42592500000000005        0.5783164230769231        0        
C4        C        0.46875        0.37037        0.5783164230769231        0        
C1        C        0.4375        0.46296300000000007        0.5783164230769231        0        
C2        C        0.46875        0.518519        0.5783164230769231        0        
C3        C        0.4375        0.537037        0.5783164230769231        0        
C4        C        0.46875        0.481481        0.5783164230769231        0        
C1        C        0.4375        0.574075        0.5783164230769231        0        
C2        C        0.46875        0.62963        0.5783164230769231        0        
C3        C        0.4375        0.648148        0.5783164230769231        0        
C4        C        0.46875        0.592592        0.5783164230769231        0        
C_FG        C        0.5        0.018519        0.5783164230769231        0.08        
C2        C        0.53125        0.074075        0.5783164230769231        0        
C3        C        0.5        0.092592        0.5783164230769231        0        
C4        C        0.53125        0.037037        0.5783164230769231        0        
C_FG        C        0.5        0.12963        0.5783164230769231        0.08        
C2        C        0.53125        0.185185        0.5783164230769231        0        
C3        C        0.5        0.203703        0.5783164230769231        0        
C4        C        0.53125        0.148148        0.5783164230769231        0        
C_FG        C        0.5        0.24074099999999998        0.5783164230769231        0.08        
C2        C        0.53125        0.296297        0.5783164230769231        0        
C3        C        0.5        0.314815        0.5783164230769231        0        
C4        C        0.53125        0.259259        0.5783164230769231        0        
C_FG        C        0.5        0.351852        0.5783164230769231        0.08        
C2        C        0.53125        0.407408        0.5783164230769231        0        
C3        C        0.5        0.42592500000000005        0.5783164230769231        0        
C4        C        0.53125        0.37037        0.5783164230769231        0        
C_FG        C        0.5        0.46296300000000007        0.5783164230769231        0.08        
C2        C        0.53125        0.518519        0.5783164230769231        0        
C3        C        0.5        0.537037        0.5783164230769231        0        
C4        C        0.53125        0.481481        0.5783164230769231        0        
C_FG        C        0.5        0.574075        0.5783164230769231        0.08        
C2        C        0.53125        0.62963        0.5783164230769231        0        
C3        C        0.5        0.648148        0.5783164230769231        0        
C4        C        0.53125        0.592592        0.5783164230769231        0        
C1        C        0.5625        0.018519        0.5783164230769231        0        
C2        C        0.59375        0.074075        0.5783164230769231        0        
C3        C        0.5625        0.092592        0.5783164230769231        0        
C4        C        0.59375        0.037037        0.5783164230769231        0        
C1        C        0.5625        0.12963        0.5783164230769231        0        
C2        C        0.59375        0.185185        0.5783164230769231        0        
C3        C        0.5625        0.203703        0.5783164230769231        0        
C4        C        0.59375        0.148148        0.5783164230769231        0        
C1        C        0.5625        0.24074099999999998        0.5783164230769231        0        
C2        C        0.59375        0.296297        0.5783164230769231        0        
C3        C        0.5625        0.314815        0.5783164230769231        0        
C4        C        0.59375        0.259259        0.5783164230769231        0        
C1        C        0.5625        0.351852        0.5783164230769231        0        
C2        C        0.59375        0.407408        0.5783164230769231        0        
C3        C        0.5625        0.42592500000000005        0.5783164230769231        0        
C4        C        0.59375        0.37037        0.5783164230769231        0        
C1        C        0.5625        0.46296300000000007        0.5783164230769231        0        
C2        C        0.59375        0.518519        0.5783164230769231        0        
C3        C        0.5625        0.537037        0.5783164230769231        0        
C4        C        0.59375        0.481481        0.5783164230769231        0        
C1        C        0.5625        0.574075        0.5783164230769231        0        
C2        C        0.59375        0.62963        0.5783164230769231        0        
C3        C        0.5625        0.648148        0.5783164230769231        0        
C4        C        0.59375        0.592592        0.5783164230769231        0        
C1        C        0.625        0.018519        0.5783164230769231        0        
C2        C        0.65625        0.074075        0.5783164230769231        0        
C3        C        0.625        0.092592        0.5783164230769231        0        
C4        C        0.65625        0.037037        0.5783164230769231        0        
C1        C        0.625        0.12963        0.5783164230769231        0        
C2        C        0.65625        0.185185        0.5783164230769231        0        
C3        C        0.625        0.203703        0.5783164230769231        0        
C4        C        0.65625        0.148148        0.5783164230769231        0        
C1        C        0.625        0.24074099999999998        0.5783164230769231        0        
C2        C        0.65625        0.296297        0.5783164230769231        0        
C3        C        0.625        0.314815        0.5783164230769231        0        
C4        C        0.65625        0.259259        0.5783164230769231        0        
C1        C        0.625        0.351852        0.5783164230769231        0        
C2        C        0.65625        0.407408        0.5783164230769231        0        
C3        C        0.625        0.42592500000000005        0.5783164230769231        0        
C4        C        0.65625        0.37037        0.5783164230769231        0        
C1        C        0.625        0.46296300000000007        0.5783164230769231        0        
C2        C        0.65625        0.518519        0.5783164230769231        0        
C3        C        0.625        0.537037        0.5783164230769231        0        
C4        C        0.65625        0.481481        0.5783164230769231        0        
C1        C        0.625        0.574075        0.5783164230769231        0        
C2        C        0.65625        0.62963        0.5783164230769231        0        
C3        C        0.625        0.648148        0.5783164230769231        0        
C4        C        0.65625        0.592592        0.5783164230769231        0        
C1        C        0.6875        0.018519        0.5783164230769231        0        
C2        C        0.71875        0.074075        0.5783164230769231        0        
C3        C        0.6875        0.092592        0.5783164230769231        0        
C4        C        0.71875        0.037037        0.5783164230769231        0        
C1        C        0.6875        0.12963        0.5783164230769231        0        
C2        C        0.71875        0.185185        0.5783164230769231        0        
C3        C        0.6875        0.203703        0.5783164230769231        0        
C4        C        0.71875        0.148148        0.5783164230769231        0        
C1        C        0.6875        0.24074099999999998        0.5783164230769231        0        
C2        C        0.71875        0.296297        0.5783164230769231        0        
C3        C        0.6875        0.314815        0.5783164230769231        0        
C4        C        0.71875        0.259259        0.5783164230769231        0        
C1        C        0.6875        0.351852        0.5783164230769231        0        
C2        C        0.71875        0.407408        0.5783164230769231        0        
C3        C        0.6875        0.42592500000000005        0.5783164230769231        0        
C4        C        0.71875        0.37037        0.5783164230769231        0        
C1        C        0.6875        0.46296300000000007        0.5783164230769231        0        
C2        C        0.71875        0.518519        0.5783164230769231        0        
C3        C        0.6875        0.537037        0.5783164230769231        0        
C4        C        0.71875        0.481481        0.5783164230769231        0        
C1        C        0.6875        0.574075        0.5783164230769231        0        
C2        C        0.71875        0.62963        0.5783164230769231        0        
C3        C        0.6875        0.648148        0.5783164230769231        0        
C4        C        0.71875        0.592592        0.5783164230769231        0        
C_FG        C        0.75        0.018519        0.5783164230769231        0.08        
C2        C        0.78125        0.074075        0.5783164230769231        0        
C3        C        0.75        0.092592        0.5783164230769231        0        
C4        C        0.78125        0.037037        0.5783164230769231        0        
C_FG        C        0.75        0.12963        0.5783164230769231        0.08        
C2        C        0.78125        0.185185        0.5783164230769231        0        
C3        C        0.75        0.203703        0.5783164230769231        0        
C4        C        0.78125        0.148148        0.5783164230769231        0        
C_FG        C        0.75        0.24074099999999998        0.5783164230769231        0.08        
C2        C        0.78125        0.296297        0.5783164230769231        0        
C3        C        0.75        0.314815        0.5783164230769231        0        
C4        C        0.78125        0.259259        0.5783164230769231        0        
C_FG        C        0.75        0.351852        0.5783164230769231        0.08        
C2        C        0.78125        0.407408        0.5783164230769231        0        
C3        C        0.75        0.42592500000000005        0.5783164230769231        0        
C4        C        0.78125        0.37037        0.5783164230769231        0        
C_FG        C        0.75        0.46296300000000007        0.5783164230769231        0.08        
C2        C        0.78125        0.518519        0.5783164230769231        0        
C3        C        0.75        0.537037        0.5783164230769231        0        
C4        C        0.78125        0.481481        0.5783164230769231        0        
C_FG        C        0.75        0.574075        0.5783164230769231        0.08        
C2        C        0.78125        0.62963        0.5783164230769231        0        
C3        C        0.75        0.648148        0.5783164230769231        0        
C4        C        0.78125        0.592592        0.5783164230769231        0        
C1        C        0.8125        0.018519        0.5783164230769231        0        
C2        C        0.84375        0.074075        0.5783164230769231        0        
C3        C        0.8125        0.092592        0.5783164230769231        0        
C4        C        0.84375        0.037037        0.5783164230769231        0        
C1        C        0.8125        0.12963        0.5783164230769231        0        
C2        C        0.84375        0.185185        0.5783164230769231        0        
C3        C        0.8125        0.203703        0.5783164230769231        0        
C4        C        0.84375        0.148148        0.5783164230769231        0        
C1        C        0.8125        0.24074099999999998        0.5783164230769231        0        
C2        C        0.84375        0.296297        0.5783164230769231        0        
C3        C        0.8125        0.314815        0.5783164230769231        0        
C4        C        0.84375        0.259259        0.5783164230769231        0        
C1        C        0.8125        0.351852        0.5783164230769231        0        
C2        C        0.84375        0.407408        0.5783164230769231        0        
C3        C        0.8125        0.42592500000000005        0.5783164230769231        0        
C4        C        0.84375        0.37037        0.5783164230769231        0        
C1        C        0.8125        0.46296300000000007        0.5783164230769231        0        
C2        C        0.84375        0.518519        0.5783164230769231        0        
C3        C        0.8125        0.537037        0.5783164230769231        0        
C4        C        0.84375        0.481481        0.5783164230769231        0        
C1        C        0.8125        0.574075        0.5783164230769231        0        
C2        C        0.84375        0.62963        0.5783164230769231        0        
C3        C        0.8125        0.648148        0.5783164230769231        0        
C4        C        0.84375        0.592592        0.5783164230769231        0        
C1        C        0.875        0.018519        0.5783164230769231        0        
C2        C        0.9062500000000001        0.074075        0.5783164230769231        0        
C3        C        0.875        0.092592        0.5783164230769231        0        
C4        C        0.9062500000000001        0.037037        0.5783164230769231        0        
C1        C        0.875        0.12963        0.5783164230769231        0        
C2        C        0.9062500000000001        0.185185        0.5783164230769231        0        
C3        C        0.875        0.203703        0.5783164230769231        0        
C4        C        0.9062500000000001        0.148148        0.5783164230769231        0        
C1        C        0.875        0.24074099999999998        0.5783164230769231        0        
C2        C        0.9062500000000001        0.296297        0.5783164230769231        0        
C3        C        0.875        0.314815        0.5783164230769231        0        
C4        C        0.9062500000000001        0.259259        0.5783164230769231        0        
C1        C        0.875        0.351852        0.5783164230769231        0        
C2        C        0.9062500000000001        0.407408        0.5783164230769231        0        
C3        C        0.875        0.42592500000000005        0.5783164230769231        0        
C4        C        0.9062500000000001        0.37037        0.5783164230769231        0        
C1        C        0.875        0.46296300000000007        0.5783164230769231        0        
C2        C        0.9062500000000001        0.518519        0.5783164230769231        0        
C3        C        0.875        0.537037        0.5783164230769231        0        
C4        C        0.9062500000000001        0.481481        0.5783164230769231        0        
C1        C        0.875        0.574075        0.5783164230769231        0        
C2        C        0.9062500000000001        0.62963        0.5783164230769231        0        
C3        C        0.875        0.648148        0.5783164230769231        0        
C4        C        0.9062500000000001        0.592592        0.5783164230769231        0        
C1        C        0.9375        0.018519        0.5783164230769231        0        
C2        C        0.9687500000000001        0.074075        0.5783164230769231        0        
C3        C        0.9375        0.092592        0.5783164230769231        0        
C4        C        0.9687500000000001        0.037037        0.5783164230769231        0        
C1        C        0.9375        0.12963        0.5783164230769231        0        
C2        C        0.9687500000000001        0.185185        0.5783164230769231        0        
C3        C        0.9375        0.203703        0.5783164230769231        0        
C4        C        0.9687500000000001        0.148148        0.5783164230769231        0        
C1        C        0.9375        0.24074099999999998        0.5783164230769231        0        
C2        C        0.9687500000000001        0.296297        0.5783164230769231        0        
C3        C        0.9375        0.314815        0.5783164230769231        0        
C4        C        0.9687500000000001        0.259259        0.5783164230769231        0        
C1        C        0.9375        0.351852        0.5783164230769231        0        
C2        C        0.9687500000000001        0.407408        0.5783164230769231        0        
C3        C        0.9375        0.42592500000000005        0.5783164230769231        0        
C4        C        0.9687500000000001        0.37037        0.5783164230769231        0        
C1        C        0.9375        0.46296300000000007        0.5783164230769231        0        
C2        C        0.9687500000000001        0.518519        0.5783164230769231        0        
C3        C        0.9375        0.537037        0.5783164230769231        0        
C4        C        0.9687500000000001        0.481481        0.5783164230769231        0        
C1        C        0.9375        0.574075        0.5783164230769231        0        
C2        C        0.9687500000000001        0.62963        0.5783164230769231        0        
C3        C        0.9375        0.648148        0.5783164230769231        0        
C4        C        0.9687500000000001        0.592592        0.5783164230769231        0        
C_FG        C        0.0        0.685186        0.5783164230769231        0.08        
C1        C        0.0625        0.685186        0.5783164230769231        0        
C1        C        0.125        0.685186        0.5783164230769231        0        
C1        C        0.1875        0.685186        0.5783164230769231        0        
C_FG        C        0.25        0.685186        0.5783164230769231        0.08        
C1        C        0.3125        0.685186        0.5783164230769231        0        
C1        C        0.375        0.685186        0.5783164230769231        0        
C1        C        0.4375        0.685186        0.5783164230769231        0        
C_FG        C        0.5        0.685186        0.5783164230769231        0.08        
C1        C        0.5625        0.685186        0.5783164230769231        0        
C1        C        0.625        0.685186        0.5783164230769231        0        
C1        C        0.6875        0.685186        0.5783164230769231        0        
C_FG        C        0.75        0.685186        0.5783164230769231        0.08        
C1        C        0.8125        0.685186        0.5783164230769231        0        
C1        C        0.875        0.685186        0.5783164230769231        0        
C1        C        0.9375        0.685186        0.5783164230769231        0        
C2        C        0.03125        0.740741        0.5783164230769231        0        
C2        C        0.09375        0.740741        0.5783164230769231        0        
C2        C        0.15625        0.740741        0.5783164230769231        0        
C2        C        0.21875        0.740741        0.5783164230769231        0        
C2        C        0.28125        0.740741        0.5783164230769231        0        
C2        C        0.34375        0.740741        0.5783164230769231        0        
C2        C        0.40625        0.740741        0.5783164230769231        0        
C2        C        0.46875        0.740741        0.5783164230769231        0        
C2        C        0.53125        0.740741        0.5783164230769231        0        
C2        C        0.59375        0.740741        0.5783164230769231        0        
C2        C        0.65625        0.740741        0.5783164230769231        0        
C2        C        0.71875        0.740741        0.5783164230769231        0        
C2        C        0.78125        0.740741        0.5783164230769231        0        
C2        C        0.84375        0.740741        0.5783164230769231        0        
C2        C        0.9062500000000001        0.740741        0.5783164230769231        0        
C2        C        0.9687500000000001        0.740741        0.5783164230769231        0        
C3        C        0.0        0.759259        0.5783164230769231        0        
C3        C        0.0625        0.759259        0.5783164230769231        0        
C3        C        0.125        0.759259        0.5783164230769231        0        
C3        C        0.1875        0.759259        0.5783164230769231        0        
C3        C        0.25        0.759259        0.5783164230769231        0        
C3        C        0.3125        0.759259        0.5783164230769231        0        
C3        C        0.375        0.759259        0.5783164230769231        0        
C3        C        0.4375        0.759259        0.5783164230769231        0        
C3        C        0.5        0.759259        0.5783164230769231        0        
C3        C        0.5625        0.759259        0.5783164230769231        0        
C3        C        0.625        0.759259        0.5783164230769231        0        
C3        C        0.6875        0.759259        0.5783164230769231        0        
C3        C        0.75        0.759259        0.5783164230769231        0        
C3        C        0.8125        0.759259        0.5783164230769231        0        
C3        C        0.875        0.759259        0.5783164230769231        0        
C3        C        0.9375        0.759259        0.5783164230769231        0        
C4        C        0.03125        0.703703        0.5783164230769231        0        
C4        C        0.09375        0.703703        0.5783164230769231        0        
C4        C        0.15625        0.703703        0.5783164230769231        0        
C4        C        0.21875        0.703703        0.5783164230769231        0        
C4        C        0.28125        0.703703        0.5783164230769231        0        
C4        C        0.34375        0.703703        0.5783164230769231        0        
C4        C        0.40625        0.703703        0.5783164230769231        0        
C4        C        0.46875        0.703703        0.5783164230769231        0        
C4        C        0.53125        0.703703        0.5783164230769231        0        
C4        C        0.59375        0.703703        0.5783164230769231        0        
C4        C        0.65625        0.703703        0.5783164230769231        0        
C4        C        0.71875        0.703703        0.5783164230769231        0        
C4        C        0.78125        0.703703        0.5783164230769231        0        
C4        C        0.84375        0.703703        0.5783164230769231        0        
C4        C        0.9062500000000001        0.703703        0.5783164230769231        0        
C4        C        0.9687500000000001        0.703703        0.5783164230769231        0        
C_FG        C        0.0        0.796297        0.5783164230769231        0.08        
C1        C        0.0625        0.796297        0.5783164230769231        0        
C1        C        0.125        0.796297        0.5783164230769231        0        
C1        C        0.1875        0.796297        0.5783164230769231        0        
C_FG        C        0.25        0.796297        0.5783164230769231        0.08        
C1        C        0.3125        0.796297        0.5783164230769231        0        
C1        C        0.375        0.796297        0.5783164230769231        0        
C1        C        0.4375        0.796297        0.5783164230769231        0        
C_FG        C        0.5        0.796297        0.5783164230769231        0.08        
C1        C        0.5625        0.796297        0.5783164230769231        0        
C1        C        0.625        0.796297        0.5783164230769231        0        
C1        C        0.6875        0.796297        0.5783164230769231        0        
C_FG        C        0.75        0.796297        0.5783164230769231        0.08        
C1        C        0.8125        0.796297        0.5783164230769231        0        
C1        C        0.875        0.796297        0.5783164230769231        0        
C1        C        0.9375        0.796297        0.5783164230769231        0        
C2        C        0.03125        0.851852        0.5783164230769231        0        
C2        C        0.09375        0.851852        0.5783164230769231        0        
C2        C        0.15625        0.851852        0.5783164230769231        0        
C2        C        0.21875        0.851852        0.5783164230769231        0        
C2        C        0.28125        0.851852        0.5783164230769231        0        
C2        C        0.34375        0.851852        0.5783164230769231        0        
C2        C        0.40625        0.851852        0.5783164230769231        0        
C2        C        0.46875        0.851852        0.5783164230769231        0        
C2        C        0.53125        0.851852        0.5783164230769231        0        
C2        C        0.59375        0.851852        0.5783164230769231        0        
C2        C        0.65625        0.851852        0.5783164230769231        0        
C2        C        0.71875        0.851852        0.5783164230769231        0        
C2        C        0.78125        0.851852        0.5783164230769231        0        
C2        C        0.84375        0.851852        0.5783164230769231        0        
C2        C        0.9062500000000001        0.851852        0.5783164230769231        0        
C2        C        0.9687500000000001        0.851852        0.5783164230769231        0        
C3        C        0.0        0.87037        0.5783164230769231        0        
C3        C        0.0625        0.87037        0.5783164230769231        0        
C3        C        0.125        0.87037        0.5783164230769231        0        
C3        C        0.1875        0.87037        0.5783164230769231        0        
C3        C        0.25        0.87037        0.5783164230769231        0        
C3        C        0.3125        0.87037        0.5783164230769231        0        
C3        C        0.375        0.87037        0.5783164230769231        0        
C3        C        0.4375        0.87037        0.5783164230769231        0        
C3        C        0.5        0.87037        0.5783164230769231        0        
C3        C        0.5625        0.87037        0.5783164230769231        0        
C3        C        0.625        0.87037        0.5783164230769231        0        
C3        C        0.6875        0.87037        0.5783164230769231        0        
C3        C        0.75        0.87037        0.5783164230769231        0        
C3        C        0.8125        0.87037        0.5783164230769231        0        
C3        C        0.875        0.87037        0.5783164230769231        0        
C3        C        0.9375        0.87037        0.5783164230769231        0        
C4        C        0.03125        0.814814        0.5783164230769231        0        
C4        C        0.09375        0.814814        0.5783164230769231        0        
C4        C        0.15625        0.814814        0.5783164230769231        0        
C4        C        0.21875        0.814814        0.5783164230769231        0        
C4        C        0.28125        0.814814        0.5783164230769231        0        
C4        C        0.34375        0.814814        0.5783164230769231        0        
C4        C        0.40625        0.814814        0.5783164230769231        0        
C4        C        0.46875        0.814814        0.5783164230769231        0        
C4        C        0.53125        0.814814        0.5783164230769231        0        
C4        C        0.59375        0.814814        0.5783164230769231        0        
C4        C        0.65625        0.814814        0.5783164230769231        0        
C4        C        0.71875        0.814814        0.5783164230769231        0        
C4        C        0.78125        0.814814        0.5783164230769231        0        
C4        C        0.84375        0.814814        0.5783164230769231        0        
C4        C        0.9062500000000001        0.814814        0.5783164230769231        0        
C4        C        0.9687500000000001        0.814814        0.5783164230769231        0        
C_FG        C        0.0        0.907408        0.5783164230769231        0.08        
C1        C        0.0625        0.907408        0.5783164230769231        0        
C1        C        0.125        0.907408        0.5783164230769231        0        
C1        C        0.1875        0.907408        0.5783164230769231        0        
C_FG        C        0.25        0.907408        0.5783164230769231        0.08        
C1        C        0.3125        0.907408        0.5783164230769231        0        
C1        C        0.375        0.907408        0.5783164230769231        0        
C1        C        0.4375        0.907408        0.5783164230769231        0        
C_FG        C        0.5        0.907408        0.5783164230769231        0.08        
C1        C        0.5625        0.907408        0.5783164230769231        0        
C1        C        0.625        0.907408        0.5783164230769231        0        
C1        C        0.6875        0.907408        0.5783164230769231        0        
C_FG        C        0.75        0.907408        0.5783164230769231        0.08        
C1        C        0.8125        0.907408        0.5783164230769231        0        
C1        C        0.875        0.907408        0.5783164230769231        0        
C1        C        0.9375        0.907408        0.5783164230769231        0        
C2        C        0.03125        0.962963        0.5783164230769231        0        
C2        C        0.09375        0.962963        0.5783164230769231        0        
C2        C        0.15625        0.962963        0.5783164230769231        0        
C2        C        0.21875        0.962963        0.5783164230769231        0        
C2        C        0.28125        0.962963        0.5783164230769231        0        
C2        C        0.34375        0.962963        0.5783164230769231        0        
C2        C        0.40625        0.962963        0.5783164230769231        0        
C2        C        0.46875        0.962963        0.5783164230769231        0        
C2        C        0.53125        0.962963        0.5783164230769231        0        
C2        C        0.59375        0.962963        0.5783164230769231        0        
C2        C        0.65625        0.962963        0.5783164230769231        0        
C2        C        0.71875        0.962963        0.5783164230769231        0        
C2        C        0.78125        0.962963        0.5783164230769231        0        
C2        C        0.84375        0.962963        0.5783164230769231        0        
C2        C        0.9062500000000001        0.962963        0.5783164230769231        0        
C2        C        0.9687500000000001        0.962963        0.5783164230769231        0        
C3        C        0.0        0.9814809999999999        0.5783164230769231        0        
C3        C        0.0625        0.9814809999999999        0.5783164230769231        0        
C3        C        0.125        0.9814809999999999        0.5783164230769231        0        
C3        C        0.1875        0.9814809999999999        0.5783164230769231        0        
C3        C        0.25        0.9814809999999999        0.5783164230769231        0        
C3        C        0.3125        0.9814809999999999        0.5783164230769231        0        
C3        C        0.375        0.9814809999999999        0.5783164230769231        0        
C3        C        0.4375        0.9814809999999999        0.5783164230769231        0        
C3        C        0.5        0.9814809999999999        0.5783164230769231        0        
C3        C        0.5625        0.9814809999999999        0.5783164230769231        0        
C3        C        0.625        0.9814809999999999        0.5783164230769231        0        
C3        C        0.6875        0.9814809999999999        0.5783164230769231        0        
C3        C        0.75        0.9814809999999999        0.5783164230769231        0        
C3        C        0.8125        0.9814809999999999        0.5783164230769231        0        
C3        C        0.875        0.9814809999999999        0.5783164230769231        0        
C3        C        0.9375        0.9814809999999999        0.5783164230769231        0        
C4        C        0.03125        0.925925        0.5783164230769231        0        
C4        C        0.09375        0.925925        0.5783164230769231        0        
C4        C        0.15625        0.925925        0.5783164230769231        0        
C4        C        0.21875        0.925925        0.5783164230769231        0        
C4        C        0.28125        0.925925        0.5783164230769231        0        
C4        C        0.34375        0.925925        0.5783164230769231        0        
C4        C        0.40625        0.925925        0.5783164230769231        0        
C4        C        0.46875        0.925925        0.5783164230769231        0        
C4        C        0.53125        0.925925        0.5783164230769231        0        
C4        C        0.59375        0.925925        0.5783164230769231        0        
C4        C        0.65625        0.925925        0.5783164230769231        0        
C4        C        0.71875        0.925925        0.5783164230769231        0        
C4        C        0.78125        0.925925        0.5783164230769231        0        
C4        C        0.84375        0.925925        0.5783164230769231        0        
C4        C        0.9062500000000001        0.925925        0.5783164230769231        0        
C4        C        0.9687500000000001        0.925925        0.5783164230769231        0        
C_COOH        C        0.0        0.018519        0.05139352564102564        0.55        
C_COOH        C        0.0        0.12963        0.05139352564102564        0.55        
C_COOH        C        0.0        0.24074099999999998        0.05139352564102564        0.55        
C_COOH        C        0.0        0.351852        0.05139352564102564        0.55        
C_COOH        C        0.0        0.46296300000000007        0.05139352564102564        0.55        
C_COOH        C        0.0        0.574075        0.05139352564102564        0.55        
C_COOH        C        0.25        0.018519        0.05139352564102564        0.55        
C_COOH        C        0.25        0.12963        0.05139352564102564        0.55        
C_COOH        C        0.25        0.24074099999999998        0.05139352564102564        0.55        
C_COOH        C        0.25        0.351852        0.05139352564102564        0.55        
C_COOH        C        0.25        0.46296300000000007        0.05139352564102564        0.55        
C_COOH        C        0.25        0.574075        0.05139352564102564        0.55        
C_COOH        C        0.5        0.018519        0.05139352564102564        0.55        
C_COOH        C        0.5        0.12963        0.05139352564102564        0.55        
C_COOH        C        0.5        0.24074099999999998        0.05139352564102564        0.55        
C_COOH        C        0.5        0.351852        0.05139352564102564        0.55        
C_COOH        C        0.5        0.46296300000000007        0.05139352564102564        0.55        
C_COOH        C        0.5        0.574075        0.05139352564102564        0.55        
C_COOH        C        0.75        0.018519        0.05139352564102564        0.55        
C_COOH        C        0.75        0.12963        0.05139352564102564        0.55        
C_COOH        C        0.75        0.24074099999999998        0.05139352564102564        0.55        
C_COOH        C        0.75        0.351852        0.05139352564102564        0.55        
C_COOH        C        0.75        0.46296300000000007        0.05139352564102564        0.55        
C_COOH        C        0.75        0.574075        0.05139352564102564        0.55        
C_COOH        C        0.0        0.685186        0.05139352564102564        0.55        
C_COOH        C        0.25        0.685186        0.05139352564102564        0.55        
C_COOH        C        0.5        0.685186        0.05139352564102564        0.55        
C_COOH        C        0.75        0.685186        0.05139352564102564        0.55        
C_COOH        C        0.0        0.796297        0.05139352564102564        0.55        
C_COOH        C        0.25        0.796297        0.05139352564102564        0.55        
C_COOH        C        0.5        0.796297        0.05139352564102564        0.55        
C_COOH        C        0.75        0.796297        0.05139352564102564        0.55        
C_COOH        C        0.0        0.907408        0.05139352564102564        0.55        
C_COOH        C        0.25        0.907408        0.05139352564102564        0.55        
C_COOH        C        0.5        0.907408        0.05139352564102564        0.55        
C_COOH        C        0.75        0.907408        0.05139352564102564        0.55        
C_COOH        C        0.0        0.018519        0.6757525        0.55        
C_COOH        C        0.0        0.12963        0.6757525        0.55        
C_COOH        C        0.0        0.24074099999999998        0.6757525        0.55        
C_COOH        C        0.0        0.351852        0.6757525        0.55        
C_COOH        C        0.0        0.46296300000000007        0.6757525        0.55        
C_COOH        C        0.0        0.574075        0.6757525        0.55        
C_COOH        C        0.25        0.018519        0.6757525        0.55        
C_COOH        C        0.25        0.12963        0.6757525        0.55        
C_COOH        C        0.25        0.24074099999999998        0.6757525        0.55        
C_COOH        C        0.25        0.351852        0.6757525        0.55        
C_COOH        C        0.25        0.46296300000000007        0.6757525        0.55        
C_COOH        C        0.25        0.574075        0.6757525        0.55        
C_COOH        C        0.5        0.018519        0.6757525        0.55        
C_COOH        C        0.5        0.12963        0.6757525        0.55        
C_COOH        C        0.5        0.24074099999999998        0.6757525        0.55        
C_COOH        C        0.5        0.351852        0.6757525        0.55        
C_COOH        C        0.5        0.46296300000000007        0.6757525        0.55        
C_COOH        C        0.5        0.574075        0.6757525        0.55        
C_COOH        C        0.75        0.018519        0.6757525        0.55        
C_COOH        C        0.75        0.12963        0.6757525        0.55        
C_COOH        C        0.75        0.24074099999999998        0.6757525        0.55        
C_COOH        C        0.75        0.351852        0.6757525        0.55        
C_COOH        C        0.75        0.46296300000000007        0.6757525        0.55        
C_COOH        C        0.75        0.574075        0.6757525        0.55        
C_COOH        C        0.0        0.685186        0.6757525        0.55        
C_COOH        C        0.25        0.685186        0.6757525        0.55        
C_COOH        C        0.5        0.685186        0.6757525        0.55        
C_COOH        C        0.75        0.685186        0.6757525        0.55        
C_COOH        C        0.0        0.796297        0.6757525        0.55        
C_COOH        C        0.25        0.796297        0.6757525        0.55        
C_COOH        C        0.5        0.796297        0.6757525        0.55        
C_COOH        C        0.75        0.796297        0.6757525        0.55        
C_COOH        C        0.0        0.907408        0.6757525        0.55        
C_COOH        C        0.25        0.907408        0.6757525        0.55        
C_COOH        C        0.5        0.907408        0.6757525        0.55        
C_COOH        C        0.75        0.907408        0.6757525        0.55        
O1_COOH        O        0.002011299705572136        0.048007744382966476        0.0235051282051282        -0.5        
O1_COOH        O        -0.00634136942532146        0.15846519367445622        0.0235051282051282        -0.5        
O1_COOH        O        0.010222759304972063        0.26837630711260946        0.0235051282051282        -0.5        
O1_COOH        O        0.013619890938019573        0.37789708727121046        0.0235051282051282        -0.5        
O1_COOH        O        -0.028216745484826875        0.4688568719152754        0.0235051282051282        -0.5        
O1_COOH        O        -0.009644896720638655        0.6019283655192086        0.0235051282051282        -0.5        
O1_COOH        O        0.22362678493002355        0.0303850011029568        0.0235051282051282        -0.5        
O1_COOH        O        0.25125067161531106        0.15916304870157943        0.0235051282051282        -0.5        
O1_COOH        O        0.22758147284790592        0.2592925902523213        0.0235051282051282        -0.5        
O1_COOH        O        0.22228626162126439        0.35987621314689683        0.0235051282051282        -0.5        
O1_COOH        O        0.22941814660246493        0.4836365900264498        0.0235051282051282        -0.5        
O1_COOH        O        0.2467876545964992        0.6034514182494827        0.0235051282051282        -0.5        
O1_COOH        O        0.5107342229731993        0.04594915774251157        0.0235051282051282        -0.5        
O1_COOH        O        0.5138334954201779        0.15555616887812876        0.0235051282051282        -0.5        
O1_COOH        O        0.528269501805443        0.24636212531461174        0.0235051282051282        -0.5        
O1_COOH        O        0.5153164040909656        0.3768841591201093        0.0235051282051282        -0.5        
O1_COOH        O        0.48286585297965995        0.4867209861372042        0.0235051282051282        -0.5        
O1_COOH        O        0.4712113600616213        0.5746905861044204        0.0235051282051282        -0.5        
O1_COOH        O        0.7215084528518131        0.022798485083053453        0.0235051282051282        -0.5        
O1_COOH        O        0.7349889307365197        0.15485634113876665        0.0235051282051282        -0.5        
O1_COOH        O        0.7236744218555471        0.2527179671299338        0.0235051282051282        -0.5        
O1_COOH        O        0.778733580267657        0.35377991617715693        0.0235051282051282        -0.5        
O1_COOH        O        0.7591044359285523        0.49100742181489593        0.0235051282051282        -0.5        
O1_COOH        O        0.770211581559401        0.5951300793464992        0.0235051282051282        -0.5        
O1_COOH        O        0.008063275519581607        0.7135642953657432        0.0235051282051282        -0.5        
O1_COOH        O        0.22349337225927304        0.6967344532692467        0.0235051282051282        -0.5        
O1_COOH        O        0.48456052587249543        0.7101383502815418        0.0235051282051282        -0.5        
O1_COOH        O        0.7359254311763704        0.7109750597001284        0.0235051282051282        -0.5        
O1_COOH        O        0.028355333528228176        0.8014423668596854        0.0235051282051282        -0.5        
O1_COOH        O        0.23021651836311954        0.8177763247506096        0.0235051282051282        -0.5        
O1_COOH        O        0.47713993179239533        0.814271738824304        0.0235051282051282        -0.5        
O1_COOH        O        0.726358467041165        0.813172799349394        0.0235051282051282        -0.5        
O1_COOH        O        0.0271292070586654        0.9173162703327983        0.0235051282051282        -0.5        
O1_COOH        O        0.23407332161062572        0.932035507655305        0.0235051282051282        -0.5        
O1_COOH        O        0.47721528059396895        0.9254832855516725        0.0235051282051282        -0.5        
O1_COOH        O        0.7371841486736829        0.9338796444212902        0.0235051282051282        -0.5        
O1_COOH        O        0.0001421073141963032        0.048079585176435014        0.7036408974358974        -0.5        
O1_COOH        O        0.018782749997236677        0.15203617537463207        0.7036408974358974        -0.5        
O1_COOH        O        0.0072047352378896284        0.26936166719750027        0.7036408974358974        -0.5        
O1_COOH        O        -0.022158353295623306        0.37073014986911296        0.7036408974358974        -0.5        
O1_COOH        O        0.028775246376556027        0.4640545585685254        0.7036408974358974        -0.5        
O1_COOH        O        0.024487201740567257        0.589628044889005        0.7036408974358974        -0.5        
O1_COOH        O        0.2781081435256913        0.024936516866663743        0.7036408974358974        -0.5        
O1_COOH        O        0.2673298901499024        0.15323788183499373        0.7036408974358974        -0.5        
O1_COOH        O        0.2724856917253451        0.2592067228200454        0.7036408974358974        -0.5        
O1_COOH        O        0.24322791706648622        0.380583789510647        0.7036408974358974        -0.5        
O1_COOH        O        0.27746070322167        0.47185691894295756        0.7036408974358974        -0.5        
O1_COOH        O        0.22368732812915854        0.5860818203035311        0.7036408974358974        -0.5        
O1_COOH        O        0.4731946294234588        0.029316291297478016        0.7036408974358974        -0.5        
O1_COOH        O        0.4772576092090092        0.1477613802185153        0.7036408974358974        -0.5        
O1_COOH        O        0.4795022236111885        0.26150244008932994        0.7036408974358974        -0.5        
O1_COOH        O        0.48499933277262197        0.3770848615510948        0.7036408974358974        -0.5        
O1_COOH        O        0.5263390156255114        0.47490879034489114        0.7036408974358974        -0.5        
O1_COOH        O        0.5271363684263558        0.5839625807291771        0.7036408974358974        -0.5        
O1_COOH        O        0.7751083018930855        0.03299078692371796        0.7036408974358974        -0.5        
O1_COOH        O        0.7787597555951621        0.1310897312970274        0.7036408974358974        -0.5        
O1_COOH        O        0.7719335172118058        0.2598938712819388        0.7036408974358974        -0.5        
O1_COOH        O        0.7380384916717186        0.37874173100982045        0.7036408974358974        -0.5        
O1_COOH        O        0.7217338867740354        0.468602056143685        0.7036408974358974        -0.5        
O1_COOH        O        0.7775786690845993        0.5825755272567995        0.7036408974358974        -0.5        
O1_COOH        O        -0.007315230072447726        0.71377711239508        0.7036408974358974        -0.5        
O1_COOH        O        0.2784494304307537        0.6897512446822421        0.7036408974358974        -0.5        
O1_COOH        O        0.4724329953674058        0.6937263096430828        0.7036408974358974        -0.5        
O1_COOH        O        0.7775362801477058        0.6938301419217583        0.7036408974358974        -0.5        
O1_COOH        O        -0.002955247705610357        0.8257018485155287        0.7036408974358974        -0.5        
O1_COOH        O        0.26941036137309715        0.8181321523015701        0.7036408974358974        -0.5        
O1_COOH        O        0.52831893377613        0.8016494717765749        0.7036408974358974        -0.5        
O1_COOH        O        0.7733095587726659        0.8136526768023005        0.7036408974358974        -0.5        
O1_COOH        O        0.0022566575171772993        0.9368780256049032        0.7036408974358974        -0.5        
O1_COOH        O        0.2751636369537716        0.9217781368346327        0.7036408974358974        -0.5        
O1_COOH        O        0.5282457993634202        0.913153330586641        0.7036408974358974        -0.5        
O1_COOH        O        0.721205570104887        0.9075740331756181        0.7036408974358974        -0.5        
O2_COOH        O        -0.0019582961969511876        -0.010192631497804045        0.0        -0.58        
O2_COOH        O        0.006174256176076474        0.10155469627743735        0.0        -0.58        
O2_COOH        O        -0.009953360314135523        0.21383396239129776        0.0        -0.58        
O2_COOH        O        -0.013260967797549891        0.32649327538468237        0.0        -0.58        
O2_COOH        O        0.027473153414278296        0.4572244484927208        0.0        -0.58        
O2_COOH        O        0.009390726064189864        0.5469556504483419        0.0        -0.58        
O2_COOH        O        0.27567820530666226        0.006965702016331853        0.0        -0.58        
O2_COOH        O        0.2487822871643082        0.10087523172928842        0.0        -0.58        
O2_COOH        O        0.2718277347436415        0.22267829729196018        0.0        -0.58        
O2_COOH        O        0.27698340198629917        0.3440392478549268        0.0        -0.58        
O2_COOH        O        0.2700394626036772        0.44283421829036007        0.0        -0.58        
O2_COOH        O        0.2531276909003374        0.5454727345203036        0.0        -0.58        
O2_COOH        O        0.48954865455038554        -0.008188294512157935        0.0        -0.58        
O2_COOH        O        0.4865310568102679        0.10438705993746396        0.0        -0.58        
O2_COOH        O        0.4724754805452747        0.2352680074391728        0.0        -0.58        
O2_COOH        O        0.4850872270307556        0.3274795099774637        0.0        -0.58        
O2_COOH        O        0.5166826131654951        0.43983110485239385        0.0        -0.58        
O2_COOH        O        0.5280299768107842        0.5734756363527808        0.0        -0.58        
O2_COOH        O        0.7777407132666381        0.014352291607493678        0.0        -0.58        
O2_COOH        O        0.7646154845890967        0.10506844521123347        0.0        -0.58        
O2_COOH        O        0.7756318237505825        0.22907966026202847        0.0        -0.58        
O2_COOH        O        0.7220236318798953        0.34997488993663767        0.0        -0.58        
O2_COOH        O        0.7411354920378721        0.435657629033328        0.0        -0.58        
O2_COOH        O        0.7303210515108763        0.5535747823066722        0.0        -0.58        
O2_COOH        O        -0.007850785112343342        0.6575555540069281        0.0        -0.58        
O2_COOH        O        0.27580810217137713        0.6739418815550062        0.0        -0.58        
O2_COOH        O        0.5150325997577859        0.6608912156245221        0.0        -0.58        
O2_COOH        O        0.7637036636184467        0.6600765558958739        0.0        -0.58        
O2_COOH        O        -0.027608089265749758        0.7912872282959992        0.0        -0.58        
O2_COOH        O        0.26926213022585616        0.7753837169842135        0.0        -0.58        
O2_COOH        O        0.5222576399275425        0.778795947032455        0.0        -0.58        
O2_COOH        O        0.7730185108440678        0.779865926304283        0.0        -0.58        
O2_COOH        O        -0.02641427474090601        0.8977608409727659        0.0        -0.58        
O2_COOH        O        0.265506964791756        0.883429497717044        0.0        -0.58        
O2_COOH        O        0.5221842767827274        0.8898090499993695        0.0        -0.58        
O2_COOH        O        0.7624781169327917        0.8816339592373826        0.0        -0.58        
O2_COOH        O        -0.00013836237940004372        -0.010262579080576338        0.7271460256410257        -0.58        
O2_COOH        O        -0.018287770731518316        0.10781429152910267        0.7271460256410257        -0.58        
O2_COOH        O        -0.007014869826367329        0.21287456936721322        0.7271460256410257        -0.58        
O2_COOH        O        0.021574417213558152        0.3334713434565028        0.7271460256410257        -0.58        
O2_COOH        O        -0.028016936207681496        0.4619002071265309        0.7271460256410257        -0.58        
O2_COOH        O        -0.023841893830978587        0.5589318223956031        0.7271460256410257        -0.58        
O2_COOH        O        0.22263258657214313        0.01227060308578538        0.7271460256410257        -0.58        
O2_COOH        O        0.23312680209711364        0.10664425347626635        0.7271460256410257        -0.58        
O2_COOH        O        0.22810687066200597        0.2227619018714278        0.7271460256410257        -0.58        
O2_COOH        O        0.25659361914954665        0.3238773754453284        0.7271460256410257        -0.58        
O2_COOH        O        0.22326296496955716        0.4543034612978694        0.7271460256410257        -0.58        
O2_COOH        O        0.2756192575942508        0.56238459380507        0.7271460256410257        -0.58        
O2_COOH        O        0.5260989722777172        0.008006248257111132        0.7271460256410257        -0.58        
O2_COOH        O        0.522143063647944        0.11197643358768143        0.7271460256410257        -0.58        
O2_COOH        O        0.5199576012649726        0.22052668332828376        0.7271460256410257        -0.58        
O2_COOH        O        0.5146053566764424        0.32728409663044794        0.7271460256410257        -0.58        
O2_COOH        O        0.47435509288447664        0.4513320154494794        0.7271460256410257        -0.58        
O2_COOH        O        0.47357875261395593        0.5644479853460663        0.7271460256410257        -0.58        
O2_COOH        O        0.7255533737846668        0.004428586116235633        0.7271460256410257        -0.58        
O2_COOH        O        0.7219981463472492        0.12820873680405764        0.7271460256410257        -0.58        
O2_COOH        O        0.7286444937954065        0.22209286173984594        0.7271460256410257        -0.58        
O2_COOH        O        0.7616462883200245        0.3256708904280714        0.7271460256410257        -0.58        
O2_COOH        O        0.7775212201740228        0.4574725491388087        0.7271460256410257        -0.58        
O2_COOH        O        0.7231481078450299        0.5657984859862244        0.7271460256410257        -0.58        
O2_COOH        O        0.0071224528055217565        0.6573483453159298        0.7271460256410257        -0.58        
O2_COOH        O        0.22230029355464737        0.6807410625923034        0.7271460256410257        -0.58        
O2_COOH        O        0.5268405350946882        0.6768707519797766        0.7271460256410257        -0.58        
O2_COOH        O        0.7231893797120128        0.6767696559790723        0.7271460256410257        -0.58        
O2_COOH        O        0.0028773684632441383        0.7676670534732064        0.7271460256410257        -0.58        
O2_COOH        O        0.23110115725017139        0.7750372665084907        0.7271460256410257        -0.58        
O2_COOH        O        0.47242735124861324        0.7910855811869228        0.7271460256410257        -0.58        
O2_COOH        O        0.7273047148713538        0.7793986949968722        0.7271460256410257        -0.58        
O2_COOH        O        -0.0021971881273917474        0.8787145939868373        0.7271460256410257        -0.58        
O2_COOH        O        0.2254994969613374        0.8934165574342965        0.7271460256410257        -0.58        
O2_COOH        O        0.4724985583600544        0.9018140753318482        0.7271460256410257        -0.58        
O2_COOH        O        0.7780356141855733        0.9072463422741622        0.7271460256410257        -0.58        
H_COOH        H        -0.0033330556554615025        -0.03034871770801112        0.03742051282051283        0.45        
H_COOH        H        0.010508696027689194        0.08184532370998152        0.03742051282051283        0.45        
H_COOH        H        -0.016940799832795873        0.19494473383095745        0.03742051282051283        0.45        
H_COOH        H        -0.02257040777760252        0.3086909906358573        0.03742051282051283        0.45        
H_COOH        H        0.04675980554084905        0.4531958812233451        0.03742051282051283        0.45        
H_COOH        H        0.015983186131836184        0.5279173750521923        0.03742051282051283        0.45        
H_COOH        H        0.29370477129696715        -0.0011449227730966855        0.03742051282051283        0.45        
H_COOH        H        0.24792743066138334        0.08068886272189439        0.03742051282051283        0.45        
H_COOH        H        0.2871512005418153        0.2099979522896068        0.03742051282051283        0.45        
H_COOH        H        0.29592623972514787        0.3385545541067808        0.03742051282051283        0.45        
H_COOH        H        0.284107528915995        0.42870344834519086        0.03742051282051283        0.45        
H_COOH        H        0.2553233866562857        0.5253934252389734        0.03742051282051283        0.45        
H_COOH        H        0.4822116204319587        -0.0269372997948991        0.03742051282051283        0.45        
H_COOH        H        0.4770756143317245        0.08666605804530467        0.03742051282051283        0.45        
H_COOH        H        0.45315276852640535        0.23142586736809068        0.03742051282051283        0.45        
H_COOH        H        0.47461818985241466        0.31036957980546265        0.03742051282051283        0.45        
H_COOH        H        0.5283941102708051        0.42359209478999865        0.03742051282051283        0.45        
H_COOH        H        0.5477075290638314        0.5730548721985204        0.03742051282051283        0.45        
H_COOH        H        0.797215197263751        0.011427186721741221        0.03742051282051283        0.45        
H_COOH        H        0.7748758199310406        0.08782578814324464        0.03742051282051283        0.45        
H_COOH        H        0.7936258290470454        0.2208931882009391        0.03742051282051283        0.45        
H_COOH        H        0.7023837139002969        0.3486571246168204        0.03742051282051283        0.45        
H_COOH        H        0.7349124466247481        0.416488763228958        0.03742051282051283        0.45        
H_COOH        H        0.716506072647577        0.5391832575622031        0.03742051282051283        0.45        
H_COOH        H        -0.013362178693523337        0.6381584796363748        0.03742051282051283        0.45        
H_COOH        H        0.29392585811735655        0.6660483064109949        0.03742051282051283        0.45        
H_COOH        H        0.525585757515632        0.6438358362265253        0.03742051282051283        0.45        
H_COOH        H        0.7733238840963466        0.6424492705884594        0.03742051282051283        0.45        
H_COOH        H        -0.04698946880811764        0.7877702776703609        0.03742051282051283        0.45        
H_COOH        H        0.2827844951062457        0.7607022128893698        0.03742051282051283        0.45        
H_COOH        H        0.5378829069643394        0.76650989033762        0.03742051282051283        0.45        
H_COOH        H        0.7891779230683122        0.7683310144702944        0.03742051282051283        0.45        
H_COOH        H        -0.044957574828137795        0.8909883603127458        0.03742051282051283        0.45        
H_COOH        H        0.2763931354095833        0.8665961540861232        0.03742051282051283        0.45        
H_COOH        H        0.5377580415608785        0.8774542678112182        0.03742051282051283        0.45        
H_COOH        H        0.7712379814029675        0.8635401150183091        0.03742051282051283        0.45        
H_COOH        H        -0.00023549527996858017        -0.03046776976290864        0.6897255128205128        0.45        
H_COOH        H        -0.03112611756963433        0.09249926839258107        0.6897255128205128        0.45        
H_COOH        H        -0.011939435711258068        0.19331182949824532        0.6897255128205128        0.45        
H_COOH        H        0.03672004950981804        0.3205677890932033        0.6897255128205128        0.45        
H_COOH        H        -0.04768533372076225        0.4611541072477109        0.6897255128205128        0.45        
H_COOH        H        -0.04057933585020216        0.5483010369832854        0.6897255128205128        0.45        
H_COOH        H        0.2034201658344205        0.007884115090906573        0.6897255128205128        0.45        
H_COOH        H        0.221281511048485        0.09050784239932083        0.6897255128205128        0.45        
H_COOH        H        0.21273749667217987        0.2101402488006509        0.6897255128205128        0.45        
H_COOH        H        0.2612224594167986        0.3042386814802968        0.6897255128205128        0.45        
H_COOH        H        0.2044930813034147        0.44822430802390384        0.6897255128205128        0.45        
H_COOH        H        0.2936044412209881        0.5541777165638596        0.6897255128205128        0.45        
H_COOH        H        0.5444209243154376        0.0006261058067464026        0.6897255128205128        0.45        
H_COOH        H        0.5376878960577706        0.09958330968765074        0.6897255128205128        0.45        
H_COOH        H        0.5339681994323561        0.20633586628792505        0.6897255128205128        0.45        
H_COOH        H        0.524858582039958        0.31003698274356895        0.6897255128205128        0.45        
H_COOH        H        0.45635190282846133        0.4431668532806972        0.6897255128205128        0.45        
H_COOH        H        0.4550305576033366        0.5576896464015709        0.6897255128205128        0.45        
H_COOH        H        0.7083913986603116        -0.005463140064506658        0.6897255128205128        0.45        
H_COOH        H        0.702340337061364        0.12721098425533886        0.6897255128205128        0.45        
H_COOH        H        0.7136525409990173        0.20900153035868516        0.6897255128205128        0.45        
H_COOH        H        0.7698221940126456        0.3072912765196444        0.6897255128205128        0.45        
H_COOH        H        0.7968416160379821        0.453618153024135        0.6897255128205128        0.45        
H_COOH        H        0.7042975923936822        0.5599882229924824        0.6897255128205128        0.45        
H_COOH        H        0.012122543893595511        0.6378058066850266        0.6897255128205128        0.45        
H_COOH        H        0.20285459709004003        0.6776206358901372        0.6897255128205128        0.45        
H_COOH        H        0.5456830776836735        0.6710332970107792        0.6897255128205128        0.45        
H_COOH        H        0.704367837860059        0.6708612297834535        0.6897255128205128        0.45        
H_COOH        H        0.0048973333268958474        0.7475683115946126        0.6897255128205128        0.45        
H_COOH        H        0.21783382676887056        0.7601125478942362        0.6897255128205128        0.45        
H_COOH        H        0.4530708515903053        0.7874270706323445        0.6897255128205128        0.45        
H_COOH        H        0.711372212963435        0.7675357783083704        0.6897255128205128        0.45        
H_COOH        H        -0.0037396540551513273        0.8585713023975031        0.6897255128205128        0.45        
H_COOH        H        0.20829969932954856        0.8835943109144128        0.6897255128205128        0.45        
H_COOH        H        0.453192047385848        0.8978870387274221        0.6897255128205128        0.45        
H_COOH        H        0.797717123977998        0.9071328556177602        0.6897255128205128        0.45        
