data_graphite_ortho

_audit_creation_method RASPA-1.0
_audit_creation_date 2012-2-3
_audit_author_name 'David Dubbeldam'

_cell_length_a    39.36    
_cell_length_b    38.34    
_cell_length_c    15.6    
_cell_angle_alpha 90
_cell_angle_beta  90
_cell_angle_gamma 90
_cell_volume      23541.37      

_symmetry_cell_setting          triclinic
_symmetry_space_group_name_Hall 'P 1'
_symmetry_space_group_name_H-M  'P 1'
_symmetry_Int_Tables_number     1

_symmetry_equiv_pos_as_xyz 'x,y,z'

loop_
_atom_site_label
_atom_site_type_symbol
_atom_site_fract_x
_atom_site_fract_y
_atom_site_fract_z
_atom_site_charge
C_Base_OH        C        0.0        0.018519        0.14882942307692307        0.2        
C_Base_CO        C        0.03125        0.074075        0.14882942307692307        0.5        
C_Base_CO        C        0.0        0.092592        0.14882942307692307        0.5        
C_Base_OH        C        0.03125        0.037037        0.14882942307692307        0.2        
C_Base_COOH        C        0.0        0.12963        0.14882942307692307        0.08        
C_Base_OH        C        0.03125        0.185185        0.14882942307692307        0.2        
C_Base_COOH        C        0.0        0.203703        0.14882942307692307        0.08        
C_Base_COOH        C        0.03125        0.148148        0.14882942307692307        0.08        
C_Base_COOH        C        0.0        0.24074099999999998        0.14882942307692307        0.08        
C_Base_COOH        C        0.03125        0.296297        0.14882942307692307        0.08        
C_Base_OH        C        0.0        0.314815        0.14882942307692307        0.2        
C_Base_CO        C        0.03125        0.259259        0.14882942307692307        0.5        
C_Base_COOH        C        0.0        0.351852        0.14882942307692307        0.08        
C_Base_COOH        C        0.03125        0.407408        0.14882942307692307        0.08        
C_Base_OH        C        0.0        0.42592500000000005        0.14882942307692307        0.2        
C_Base_COOH        C        0.03125        0.37037        0.14882942307692307        0.08        
C_Base_CO        C        0.0        0.46296300000000007        0.14882942307692307        0.5        
C_Base_OH        C        0.03125        0.518519        0.14882942307692307        0.2        
C_Base_CO        C        0.0        0.537037        0.14882942307692307        0.5        
C_Base_CO        C        0.03125        0.481481        0.14882942307692307        0.5        
C_Base_COOH        C        0.0        0.574075        0.14882942307692307        0.08        
C_Base_OH        C        0.03125        0.62963        0.14882942307692307        0.2        
C_Base_CO        C        0.0        0.648148        0.14882942307692307        0.5        
C_Base_COOH        C        0.03125        0.592592        0.14882942307692307        0.08        
C_Base_OH        C        0.0625        0.018519        0.14882942307692307        0.2        
C_Base_CO        C        0.09375        0.074075        0.14882942307692307        0.5        
C_Base_CO        C        0.0625        0.092592        0.14882942307692307        0.5        
C_Base_OH        C        0.09375        0.037037        0.14882942307692307        0.2        
C_Base_COOH        C        0.0625        0.12963        0.14882942307692307        0.08        
C_Base_OH        C        0.09375        0.185185        0.14882942307692307        0.2        
C_Base_COOH        C        0.0625        0.203703        0.14882942307692307        0.08        
C_Base_COOH        C        0.09375        0.148148        0.14882942307692307        0.08        
C_Base_COOH        C        0.0625        0.24074099999999998        0.14882942307692307        0.08        
C_Base_COOH        C        0.09375        0.296297        0.14882942307692307        0.08        
C_Base_OH        C        0.0625        0.314815        0.14882942307692307        0.2        
C_Base_CO        C        0.09375        0.259259        0.14882942307692307        0.5        
C_Base_COOH        C        0.0625        0.351852        0.14882942307692307        0.08        
C_Base_COOH        C        0.09375        0.407408        0.14882942307692307        0.08        
C_Base_OH        C        0.0625        0.42592500000000005        0.14882942307692307        0.2        
C_Base_COOH        C        0.09375        0.37037        0.14882942307692307        0.08        
C_Base_CO        C        0.0625        0.46296300000000007        0.14882942307692307        0.5        
C_Base_OH        C        0.09375        0.518519        0.14882942307692307        0.2        
C_Base_CO        C        0.0625        0.537037        0.14882942307692307        0.5        
C_Base_CO        C        0.09375        0.481481        0.14882942307692307        0.5        
C_Base_COOH        C        0.0625        0.574075        0.14882942307692307        0.08        
C_Base_OH        C        0.09375        0.62963        0.14882942307692307        0.2        
C_Base_CO        C        0.0625        0.648148        0.14882942307692307        0.5        
C_Base_COOH        C        0.09375        0.592592        0.14882942307692307        0.08        
C1        C        0.125        0.018519        0.14882942307692307        0        
C2        C        0.15625        0.074075        0.14882942307692307        0        
C3        C        0.125        0.092592        0.14882942307692307        0        
C4        C        0.15625        0.037037        0.14882942307692307        0        
C1        C        0.125        0.12963        0.14882942307692307        0        
C2        C        0.15625        0.185185        0.14882942307692307        0        
C3        C        0.125        0.203703        0.14882942307692307        0        
C4        C        0.15625        0.148148        0.14882942307692307        0        
C1        C        0.125        0.24074099999999998        0.14882942307692307        0        
C2        C        0.15625        0.296297        0.14882942307692307        0        
C3        C        0.125        0.314815        0.14882942307692307        0        
C4        C        0.15625        0.259259        0.14882942307692307        0        
C1        C        0.125        0.351852        0.14882942307692307        0        
C2        C        0.15625        0.407408        0.14882942307692307        0        
C3        C        0.125        0.42592500000000005        0.14882942307692307        0        
C4        C        0.15625        0.37037        0.14882942307692307        0        
C1        C        0.125        0.46296300000000007        0.14882942307692307        0        
C2        C        0.15625        0.518519        0.14882942307692307        0        
C3        C        0.125        0.537037        0.14882942307692307        0        
C4        C        0.15625        0.481481        0.14882942307692307        0        
C1        C        0.125        0.574075        0.14882942307692307        0        
C2        C        0.15625        0.62963        0.14882942307692307        0        
C3        C        0.125        0.648148        0.14882942307692307        0        
C4        C        0.15625        0.592592        0.14882942307692307        0        
C1        C        0.1875        0.018519        0.14882942307692307        0        
C2        C        0.21875        0.074075        0.14882942307692307        0        
C3        C        0.1875        0.092592        0.14882942307692307        0        
C4        C        0.21875        0.037037        0.14882942307692307        0        
C1        C        0.1875        0.12963        0.14882942307692307        0        
C2        C        0.21875        0.185185        0.14882942307692307        0        
C3        C        0.1875        0.203703        0.14882942307692307        0        
C4        C        0.21875        0.148148        0.14882942307692307        0        
C1        C        0.1875        0.24074099999999998        0.14882942307692307        0        
C2        C        0.21875        0.296297        0.14882942307692307        0        
C3        C        0.1875        0.314815        0.14882942307692307        0        
C4        C        0.21875        0.259259        0.14882942307692307        0        
C1        C        0.1875        0.351852        0.14882942307692307        0        
C2        C        0.21875        0.407408        0.14882942307692307        0        
C3        C        0.1875        0.42592500000000005        0.14882942307692307        0        
C4        C        0.21875        0.37037        0.14882942307692307        0        
C1        C        0.1875        0.46296300000000007        0.14882942307692307        0        
C2        C        0.21875        0.518519        0.14882942307692307        0        
C3        C        0.1875        0.537037        0.14882942307692307        0        
C4        C        0.21875        0.481481        0.14882942307692307        0        
C1        C        0.1875        0.574075        0.14882942307692307        0        
C2        C        0.21875        0.62963        0.14882942307692307        0        
C3        C        0.1875        0.648148        0.14882942307692307        0        
C4        C        0.21875        0.592592        0.14882942307692307        0        
C1        C        0.25        0.018519        0.14882942307692307        0        
C2        C        0.28125        0.074075        0.14882942307692307        0        
C3        C        0.25        0.092592        0.14882942307692307        0        
C4        C        0.28125        0.037037        0.14882942307692307        0        
C1        C        0.25        0.12963        0.14882942307692307        0        
C2        C        0.28125        0.185185        0.14882942307692307        0        
C3        C        0.25        0.203703        0.14882942307692307        0        
C4        C        0.28125        0.148148        0.14882942307692307        0        
C1        C        0.25        0.24074099999999998        0.14882942307692307        0        
C2        C        0.28125        0.296297        0.14882942307692307        0        
C3        C        0.25        0.314815        0.14882942307692307        0        
C4        C        0.28125        0.259259        0.14882942307692307        0        
C1        C        0.25        0.351852        0.14882942307692307        0        
C2        C        0.28125        0.407408        0.14882942307692307        0        
C3        C        0.25        0.42592500000000005        0.14882942307692307        0        
C4        C        0.28125        0.37037        0.14882942307692307        0        
C1        C        0.25        0.46296300000000007        0.14882942307692307        0        
C2        C        0.28125        0.518519        0.14882942307692307        0        
C3        C        0.25        0.537037        0.14882942307692307        0        
C4        C        0.28125        0.481481        0.14882942307692307        0        
C1        C        0.25        0.574075        0.14882942307692307        0        
C2        C        0.28125        0.62963        0.14882942307692307        0        
C3        C        0.25        0.648148        0.14882942307692307        0        
C4        C        0.28125        0.592592        0.14882942307692307        0        
C1        C        0.3125        0.018519        0.14882942307692307        0        
C2        C        0.34375        0.074075        0.14882942307692307        0        
C3        C        0.3125        0.092592        0.14882942307692307        0        
C4        C        0.34375        0.037037        0.14882942307692307        0        
C1        C        0.3125        0.12963        0.14882942307692307        0        
C2        C        0.34375        0.185185        0.14882942307692307        0        
C3        C        0.3125        0.203703        0.14882942307692307        0        
C4        C        0.34375        0.148148        0.14882942307692307        0        
C1        C        0.3125        0.24074099999999998        0.14882942307692307        0        
C2        C        0.34375        0.296297        0.14882942307692307        0        
C3        C        0.3125        0.314815        0.14882942307692307        0        
C4        C        0.34375        0.259259        0.14882942307692307        0        
C1        C        0.3125        0.351852        0.14882942307692307        0        
C2        C        0.34375        0.407408        0.14882942307692307        0        
C3        C        0.3125        0.42592500000000005        0.14882942307692307        0        
C4        C        0.34375        0.37037        0.14882942307692307        0        
C1        C        0.3125        0.46296300000000007        0.14882942307692307        0        
C2        C        0.34375        0.518519        0.14882942307692307        0        
C3        C        0.3125        0.537037        0.14882942307692307        0        
C4        C        0.34375        0.481481        0.14882942307692307        0        
C1        C        0.3125        0.574075        0.14882942307692307        0        
C2        C        0.34375        0.62963        0.14882942307692307        0        
C3        C        0.3125        0.648148        0.14882942307692307        0        
C4        C        0.34375        0.592592        0.14882942307692307        0        
C1        C        0.375        0.018519        0.14882942307692307        0        
C2        C        0.40625        0.074075        0.14882942307692307        0        
C3        C        0.375        0.092592        0.14882942307692307        0        
C4        C        0.40625        0.037037        0.14882942307692307        0        
C1        C        0.375        0.12963        0.14882942307692307        0        
C2        C        0.40625        0.185185        0.14882942307692307        0        
C3        C        0.375        0.203703        0.14882942307692307        0        
C4        C        0.40625        0.148148        0.14882942307692307        0        
C1        C        0.375        0.24074099999999998        0.14882942307692307        0        
C2        C        0.40625        0.296297        0.14882942307692307        0        
C3        C        0.375        0.314815        0.14882942307692307        0        
C4        C        0.40625        0.259259        0.14882942307692307        0        
C1        C        0.375        0.351852        0.14882942307692307        0        
C2        C        0.40625        0.407408        0.14882942307692307        0        
C3        C        0.375        0.42592500000000005        0.14882942307692307        0        
C4        C        0.40625        0.37037        0.14882942307692307        0        
C1        C        0.375        0.46296300000000007        0.14882942307692307        0        
C2        C        0.40625        0.518519        0.14882942307692307        0        
C3        C        0.375        0.537037        0.14882942307692307        0        
C4        C        0.40625        0.481481        0.14882942307692307        0        
C1        C        0.375        0.574075        0.14882942307692307        0        
C2        C        0.40625        0.62963        0.14882942307692307        0        
C3        C        0.375        0.648148        0.14882942307692307        0        
C4        C        0.40625        0.592592        0.14882942307692307        0        
C1        C        0.4375        0.018519        0.14882942307692307        0        
C2        C        0.46875        0.074075        0.14882942307692307        0        
C3        C        0.4375        0.092592        0.14882942307692307        0        
C4        C        0.46875        0.037037        0.14882942307692307        0        
C1        C        0.4375        0.12963        0.14882942307692307        0        
C2        C        0.46875        0.185185        0.14882942307692307        0        
C3        C        0.4375        0.203703        0.14882942307692307        0        
C4        C        0.46875        0.148148        0.14882942307692307        0        
C1        C        0.4375        0.24074099999999998        0.14882942307692307        0        
C2        C        0.46875        0.296297        0.14882942307692307        0        
C3        C        0.4375        0.314815        0.14882942307692307        0        
C4        C        0.46875        0.259259        0.14882942307692307        0        
C1        C        0.4375        0.351852        0.14882942307692307        0        
C2        C        0.46875        0.407408        0.14882942307692307        0        
C3        C        0.4375        0.42592500000000005        0.14882942307692307        0        
C4        C        0.46875        0.37037        0.14882942307692307        0        
C1        C        0.4375        0.46296300000000007        0.14882942307692307        0        
C2        C        0.46875        0.518519        0.14882942307692307        0        
C3        C        0.4375        0.537037        0.14882942307692307        0        
C4        C        0.46875        0.481481        0.14882942307692307        0        
C1        C        0.4375        0.574075        0.14882942307692307        0        
C2        C        0.46875        0.62963        0.14882942307692307        0        
C3        C        0.4375        0.648148        0.14882942307692307        0        
C4        C        0.46875        0.592592        0.14882942307692307        0        
C1        C        0.5        0.018519        0.14882942307692307        0        
C2        C        0.53125        0.074075        0.14882942307692307        0        
C3        C        0.5        0.092592        0.14882942307692307        0        
C4        C        0.53125        0.037037        0.14882942307692307        0        
C1        C        0.5        0.12963        0.14882942307692307        0        
C2        C        0.53125        0.185185        0.14882942307692307        0        
C3        C        0.5        0.203703        0.14882942307692307        0        
C4        C        0.53125        0.148148        0.14882942307692307        0        
C1        C        0.5        0.24074099999999998        0.14882942307692307        0        
C2        C        0.53125        0.296297        0.14882942307692307        0        
C3        C        0.5        0.314815        0.14882942307692307        0        
C4        C        0.53125        0.259259        0.14882942307692307        0        
C1        C        0.5        0.351852        0.14882942307692307        0        
C2        C        0.53125        0.407408        0.14882942307692307        0        
C3        C        0.5        0.42592500000000005        0.14882942307692307        0        
C4        C        0.53125        0.37037        0.14882942307692307        0        
C1        C        0.5        0.46296300000000007        0.14882942307692307        0        
C2        C        0.53125        0.518519        0.14882942307692307        0        
C3        C        0.5        0.537037        0.14882942307692307        0        
C4        C        0.53125        0.481481        0.14882942307692307        0        
C1        C        0.5        0.574075        0.14882942307692307        0        
C2        C        0.53125        0.62963        0.14882942307692307        0        
C3        C        0.5        0.648148        0.14882942307692307        0        
C4        C        0.53125        0.592592        0.14882942307692307        0        
C1        C        0.5625        0.018519        0.14882942307692307        0        
C2        C        0.59375        0.074075        0.14882942307692307        0        
C3        C        0.5625        0.092592        0.14882942307692307        0        
C4        C        0.59375        0.037037        0.14882942307692307        0        
C1        C        0.5625        0.12963        0.14882942307692307        0        
C2        C        0.59375        0.185185        0.14882942307692307        0        
C3        C        0.5625        0.203703        0.14882942307692307        0        
C4        C        0.59375        0.148148        0.14882942307692307        0        
C1        C        0.5625        0.24074099999999998        0.14882942307692307        0        
C2        C        0.59375        0.296297        0.14882942307692307        0        
C3        C        0.5625        0.314815        0.14882942307692307        0        
C4        C        0.59375        0.259259        0.14882942307692307        0        
C1        C        0.5625        0.351852        0.14882942307692307        0        
C2        C        0.59375        0.407408        0.14882942307692307        0        
C3        C        0.5625        0.42592500000000005        0.14882942307692307        0        
C4        C        0.59375        0.37037        0.14882942307692307        0        
C1        C        0.5625        0.46296300000000007        0.14882942307692307        0        
C2        C        0.59375        0.518519        0.14882942307692307        0        
C3        C        0.5625        0.537037        0.14882942307692307        0        
C4        C        0.59375        0.481481        0.14882942307692307        0        
C1        C        0.5625        0.574075        0.14882942307692307        0        
C2        C        0.59375        0.62963        0.14882942307692307        0        
C3        C        0.5625        0.648148        0.14882942307692307        0        
C4        C        0.59375        0.592592        0.14882942307692307        0        
C1        C        0.625        0.018519        0.14882942307692307        0        
C2        C        0.65625        0.074075        0.14882942307692307        0        
C3        C        0.625        0.092592        0.14882942307692307        0        
C4        C        0.65625        0.037037        0.14882942307692307        0        
C1        C        0.625        0.12963        0.14882942307692307        0        
C2        C        0.65625        0.185185        0.14882942307692307        0        
C3        C        0.625        0.203703        0.14882942307692307        0        
C4        C        0.65625        0.148148        0.14882942307692307        0        
C1        C        0.625        0.24074099999999998        0.14882942307692307        0        
C2        C        0.65625        0.296297        0.14882942307692307        0        
C3        C        0.625        0.314815        0.14882942307692307        0        
C4        C        0.65625        0.259259        0.14882942307692307        0        
C1        C        0.625        0.351852        0.14882942307692307        0        
C2        C        0.65625        0.407408        0.14882942307692307        0        
C3        C        0.625        0.42592500000000005        0.14882942307692307        0        
C4        C        0.65625        0.37037        0.14882942307692307        0        
C1        C        0.625        0.46296300000000007        0.14882942307692307        0        
C2        C        0.65625        0.518519        0.14882942307692307        0        
C3        C        0.625        0.537037        0.14882942307692307        0        
C4        C        0.65625        0.481481        0.14882942307692307        0        
C1        C        0.625        0.574075        0.14882942307692307        0        
C2        C        0.65625        0.62963        0.14882942307692307        0        
C3        C        0.625        0.648148        0.14882942307692307        0        
C4        C        0.65625        0.592592        0.14882942307692307        0        
C1        C        0.6875        0.018519        0.14882942307692307        0        
C2        C        0.71875        0.074075        0.14882942307692307        0        
C3        C        0.6875        0.092592        0.14882942307692307        0        
C4        C        0.71875        0.037037        0.14882942307692307        0        
C1        C        0.6875        0.12963        0.14882942307692307        0        
C2        C        0.71875        0.185185        0.14882942307692307        0        
C3        C        0.6875        0.203703        0.14882942307692307        0        
C4        C        0.71875        0.148148        0.14882942307692307        0        
C1        C        0.6875        0.24074099999999998        0.14882942307692307        0        
C2        C        0.71875        0.296297        0.14882942307692307        0        
C3        C        0.6875        0.314815        0.14882942307692307        0        
C4        C        0.71875        0.259259        0.14882942307692307        0        
C1        C        0.6875        0.351852        0.14882942307692307        0        
C2        C        0.71875        0.407408        0.14882942307692307        0        
C3        C        0.6875        0.42592500000000005        0.14882942307692307        0        
C4        C        0.71875        0.37037        0.14882942307692307        0        
C1        C        0.6875        0.46296300000000007        0.14882942307692307        0        
C2        C        0.71875        0.518519        0.14882942307692307        0        
C3        C        0.6875        0.537037        0.14882942307692307        0        
C4        C        0.71875        0.481481        0.14882942307692307        0        
C1        C        0.6875        0.574075        0.14882942307692307        0        
C2        C        0.71875        0.62963        0.14882942307692307        0        
C3        C        0.6875        0.648148        0.14882942307692307        0        
C4        C        0.71875        0.592592        0.14882942307692307        0        
C1        C        0.75        0.018519        0.14882942307692307        0        
C2        C        0.78125        0.074075        0.14882942307692307        0        
C3        C        0.75        0.092592        0.14882942307692307        0        
C4        C        0.78125        0.037037        0.14882942307692307        0        
C1        C        0.75        0.12963        0.14882942307692307        0        
C2        C        0.78125        0.185185        0.14882942307692307        0        
C3        C        0.75        0.203703        0.14882942307692307        0        
C4        C        0.78125        0.148148        0.14882942307692307        0        
C1        C        0.75        0.24074099999999998        0.14882942307692307        0        
C2        C        0.78125        0.296297        0.14882942307692307        0        
C3        C        0.75        0.314815        0.14882942307692307        0        
C4        C        0.78125        0.259259        0.14882942307692307        0        
C1        C        0.75        0.351852        0.14882942307692307        0        
C2        C        0.78125        0.407408        0.14882942307692307        0        
C3        C        0.75        0.42592500000000005        0.14882942307692307        0        
C4        C        0.78125        0.37037        0.14882942307692307        0        
C1        C        0.75        0.46296300000000007        0.14882942307692307        0        
C2        C        0.78125        0.518519        0.14882942307692307        0        
C3        C        0.75        0.537037        0.14882942307692307        0        
C4        C        0.78125        0.481481        0.14882942307692307        0        
C1        C        0.75        0.574075        0.14882942307692307        0        
C2        C        0.78125        0.62963        0.14882942307692307        0        
C3        C        0.75        0.648148        0.14882942307692307        0        
C4        C        0.78125        0.592592        0.14882942307692307        0        
C1        C        0.8125        0.018519        0.14882942307692307        0        
C2        C        0.84375        0.074075        0.14882942307692307        0        
C3        C        0.8125        0.092592        0.14882942307692307        0        
C4        C        0.84375        0.037037        0.14882942307692307        0        
C1        C        0.8125        0.12963        0.14882942307692307        0        
C2        C        0.84375        0.185185        0.14882942307692307        0        
C3        C        0.8125        0.203703        0.14882942307692307        0        
C4        C        0.84375        0.148148        0.14882942307692307        0        
C1        C        0.8125        0.24074099999999998        0.14882942307692307        0        
C2        C        0.84375        0.296297        0.14882942307692307        0        
C3        C        0.8125        0.314815        0.14882942307692307        0        
C4        C        0.84375        0.259259        0.14882942307692307        0        
C1        C        0.8125        0.351852        0.14882942307692307        0        
C2        C        0.84375        0.407408        0.14882942307692307        0        
C3        C        0.8125        0.42592500000000005        0.14882942307692307        0        
C4        C        0.84375        0.37037        0.14882942307692307        0        
C1        C        0.8125        0.46296300000000007        0.14882942307692307        0        
C2        C        0.84375        0.518519        0.14882942307692307        0        
C3        C        0.8125        0.537037        0.14882942307692307        0        
C4        C        0.84375        0.481481        0.14882942307692307        0        
C1        C        0.8125        0.574075        0.14882942307692307        0        
C2        C        0.84375        0.62963        0.14882942307692307        0        
C3        C        0.8125        0.648148        0.14882942307692307        0        
C4        C        0.84375        0.592592        0.14882942307692307        0        
C1        C        0.875        0.018519        0.14882942307692307        0        
C2        C        0.9062500000000001        0.074075        0.14882942307692307        0        
C3        C        0.875        0.092592        0.14882942307692307        0        
C4        C        0.9062500000000001        0.037037        0.14882942307692307        0        
C1        C        0.875        0.12963        0.14882942307692307        0        
C2        C        0.9062500000000001        0.185185        0.14882942307692307        0        
C3        C        0.875        0.203703        0.14882942307692307        0        
C4        C        0.9062500000000001        0.148148        0.14882942307692307        0        
C1        C        0.875        0.24074099999999998        0.14882942307692307        0        
C2        C        0.9062500000000001        0.296297        0.14882942307692307        0        
C3        C        0.875        0.314815        0.14882942307692307        0        
C4        C        0.9062500000000001        0.259259        0.14882942307692307        0        
C1        C        0.875        0.351852        0.14882942307692307        0        
C2        C        0.9062500000000001        0.407408        0.14882942307692307        0        
C3        C        0.875        0.42592500000000005        0.14882942307692307        0        
C4        C        0.9062500000000001        0.37037        0.14882942307692307        0        
C1        C        0.875        0.46296300000000007        0.14882942307692307        0        
C2        C        0.9062500000000001        0.518519        0.14882942307692307        0        
C3        C        0.875        0.537037        0.14882942307692307        0        
C4        C        0.9062500000000001        0.481481        0.14882942307692307        0        
C1        C        0.875        0.574075        0.14882942307692307        0        
C2        C        0.9062500000000001        0.62963        0.14882942307692307        0        
C3        C        0.875        0.648148        0.14882942307692307        0        
C4        C        0.9062500000000001        0.592592        0.14882942307692307        0        
C1        C        0.9375        0.018519        0.14882942307692307        0        
C2        C        0.9687500000000001        0.074075        0.14882942307692307        0        
C3        C        0.9375        0.092592        0.14882942307692307        0        
C4        C        0.9687500000000001        0.037037        0.14882942307692307        0        
C1        C        0.9375        0.12963        0.14882942307692307        0        
C2        C        0.9687500000000001        0.185185        0.14882942307692307        0        
C3        C        0.9375        0.203703        0.14882942307692307        0        
C4        C        0.9687500000000001        0.148148        0.14882942307692307        0        
C1        C        0.9375        0.24074099999999998        0.14882942307692307        0        
C2        C        0.9687500000000001        0.296297        0.14882942307692307        0        
C3        C        0.9375        0.314815        0.14882942307692307        0        
C4        C        0.9687500000000001        0.259259        0.14882942307692307        0        
C1        C        0.9375        0.351852        0.14882942307692307        0        
C2        C        0.9687500000000001        0.407408        0.14882942307692307        0        
C3        C        0.9375        0.42592500000000005        0.14882942307692307        0        
C4        C        0.9687500000000001        0.37037        0.14882942307692307        0        
C1        C        0.9375        0.46296300000000007        0.14882942307692307        0        
C2        C        0.9687500000000001        0.518519        0.14882942307692307        0        
C3        C        0.9375        0.537037        0.14882942307692307        0        
C4        C        0.9687500000000001        0.481481        0.14882942307692307        0        
C1        C        0.9375        0.574075        0.14882942307692307        0        
C2        C        0.9687500000000001        0.62963        0.14882942307692307        0        
C3        C        0.9375        0.648148        0.14882942307692307        0        
C4        C        0.9687500000000001        0.592592        0.14882942307692307        0        
C1        C        0.0        0.685186        0.14882942307692307        0        
C1        C        0.0625        0.685186        0.14882942307692307        0        
C1        C        0.125        0.685186        0.14882942307692307        0        
C1        C        0.1875        0.685186        0.14882942307692307        0        
C1        C        0.25        0.685186        0.14882942307692307        0        
C1        C        0.3125        0.685186        0.14882942307692307        0        
C1        C        0.375        0.685186        0.14882942307692307        0        
C1        C        0.4375        0.685186        0.14882942307692307        0        
C1        C        0.5        0.685186        0.14882942307692307        0        
C1        C        0.5625        0.685186        0.14882942307692307        0        
C1        C        0.625        0.685186        0.14882942307692307        0        
C1        C        0.6875        0.685186        0.14882942307692307        0        
C1        C        0.75        0.685186        0.14882942307692307        0        
C1        C        0.8125        0.685186        0.14882942307692307        0        
C1        C        0.875        0.685186        0.14882942307692307        0        
C1        C        0.9375        0.685186        0.14882942307692307        0        
C2        C        0.03125        0.740741        0.14882942307692307        0        
C2        C        0.09375        0.740741        0.14882942307692307        0        
C2        C        0.15625        0.740741        0.14882942307692307        0        
C2        C        0.21875        0.740741        0.14882942307692307        0        
C2        C        0.28125        0.740741        0.14882942307692307        0        
C2        C        0.34375        0.740741        0.14882942307692307        0        
C2        C        0.40625        0.740741        0.14882942307692307        0        
C2        C        0.46875        0.740741        0.14882942307692307        0        
C2        C        0.53125        0.740741        0.14882942307692307        0        
C2        C        0.59375        0.740741        0.14882942307692307        0        
C2        C        0.65625        0.740741        0.14882942307692307        0        
C2        C        0.71875        0.740741        0.14882942307692307        0        
C2        C        0.78125        0.740741        0.14882942307692307        0        
C2        C        0.84375        0.740741        0.14882942307692307        0        
C2        C        0.9062500000000001        0.740741        0.14882942307692307        0        
C2        C        0.9687500000000001        0.740741        0.14882942307692307        0        
C3        C        0.0        0.759259        0.14882942307692307        0        
C3        C        0.0625        0.759259        0.14882942307692307        0        
C3        C        0.125        0.759259        0.14882942307692307        0        
C3        C        0.1875        0.759259        0.14882942307692307        0        
C3        C        0.25        0.759259        0.14882942307692307        0        
C3        C        0.3125        0.759259        0.14882942307692307        0        
C3        C        0.375        0.759259        0.14882942307692307        0        
C3        C        0.4375        0.759259        0.14882942307692307        0        
C3        C        0.5        0.759259        0.14882942307692307        0        
C3        C        0.5625        0.759259        0.14882942307692307        0        
C3        C        0.625        0.759259        0.14882942307692307        0        
C3        C        0.6875        0.759259        0.14882942307692307        0        
C3        C        0.75        0.759259        0.14882942307692307        0        
C3        C        0.8125        0.759259        0.14882942307692307        0        
C3        C        0.875        0.759259        0.14882942307692307        0        
C3        C        0.9375        0.759259        0.14882942307692307        0        
C4        C        0.03125        0.703703        0.14882942307692307        0        
C4        C        0.09375        0.703703        0.14882942307692307        0        
C4        C        0.15625        0.703703        0.14882942307692307        0        
C4        C        0.21875        0.703703        0.14882942307692307        0        
C4        C        0.28125        0.703703        0.14882942307692307        0        
C4        C        0.34375        0.703703        0.14882942307692307        0        
C4        C        0.40625        0.703703        0.14882942307692307        0        
C4        C        0.46875        0.703703        0.14882942307692307        0        
C4        C        0.53125        0.703703        0.14882942307692307        0        
C4        C        0.59375        0.703703        0.14882942307692307        0        
C4        C        0.65625        0.703703        0.14882942307692307        0        
C4        C        0.71875        0.703703        0.14882942307692307        0        
C4        C        0.78125        0.703703        0.14882942307692307        0        
C4        C        0.84375        0.703703        0.14882942307692307        0        
C4        C        0.9062500000000001        0.703703        0.14882942307692307        0        
C4        C        0.9687500000000001        0.703703        0.14882942307692307        0        
C1        C        0.0        0.796297        0.14882942307692307        0        
C1        C        0.0625        0.796297        0.14882942307692307        0        
C1        C        0.125        0.796297        0.14882942307692307        0        
C1        C        0.1875        0.796297        0.14882942307692307        0        
C1        C        0.25        0.796297        0.14882942307692307        0        
C1        C        0.3125        0.796297        0.14882942307692307        0        
C1        C        0.375        0.796297        0.14882942307692307        0        
C1        C        0.4375        0.796297        0.14882942307692307        0        
C1        C        0.5        0.796297        0.14882942307692307        0        
C1        C        0.5625        0.796297        0.14882942307692307        0        
C1        C        0.625        0.796297        0.14882942307692307        0        
C1        C        0.6875        0.796297        0.14882942307692307        0        
C1        C        0.75        0.796297        0.14882942307692307        0        
C1        C        0.8125        0.796297        0.14882942307692307        0        
C1        C        0.875        0.796297        0.14882942307692307        0        
C1        C        0.9375        0.796297        0.14882942307692307        0        
C2        C        0.03125        0.851852        0.14882942307692307        0        
C2        C        0.09375        0.851852        0.14882942307692307        0        
C2        C        0.15625        0.851852        0.14882942307692307        0        
C2        C        0.21875        0.851852        0.14882942307692307        0        
C2        C        0.28125        0.851852        0.14882942307692307        0        
C2        C        0.34375        0.851852        0.14882942307692307        0        
C2        C        0.40625        0.851852        0.14882942307692307        0        
C2        C        0.46875        0.851852        0.14882942307692307        0        
C2        C        0.53125        0.851852        0.14882942307692307        0        
C2        C        0.59375        0.851852        0.14882942307692307        0        
C2        C        0.65625        0.851852        0.14882942307692307        0        
C2        C        0.71875        0.851852        0.14882942307692307        0        
C2        C        0.78125        0.851852        0.14882942307692307        0        
C2        C        0.84375        0.851852        0.14882942307692307        0        
C2        C        0.9062500000000001        0.851852        0.14882942307692307        0        
C2        C        0.9687500000000001        0.851852        0.14882942307692307        0        
C3        C        0.0        0.87037        0.14882942307692307        0        
C3        C        0.0625        0.87037        0.14882942307692307        0        
C3        C        0.125        0.87037        0.14882942307692307        0        
C3        C        0.1875        0.87037        0.14882942307692307        0        
C3        C        0.25        0.87037        0.14882942307692307        0        
C3        C        0.3125        0.87037        0.14882942307692307        0        
C3        C        0.375        0.87037        0.14882942307692307        0        
C3        C        0.4375        0.87037        0.14882942307692307        0        
C3        C        0.5        0.87037        0.14882942307692307        0        
C3        C        0.5625        0.87037        0.14882942307692307        0        
C3        C        0.625        0.87037        0.14882942307692307        0        
C3        C        0.6875        0.87037        0.14882942307692307        0        
C3        C        0.75        0.87037        0.14882942307692307        0        
C3        C        0.8125        0.87037        0.14882942307692307        0        
C3        C        0.875        0.87037        0.14882942307692307        0        
C3        C        0.9375        0.87037        0.14882942307692307        0        
C4        C        0.03125        0.814814        0.14882942307692307        0        
C4        C        0.09375        0.814814        0.14882942307692307        0        
C4        C        0.15625        0.814814        0.14882942307692307        0        
C4        C        0.21875        0.814814        0.14882942307692307        0        
C4        C        0.28125        0.814814        0.14882942307692307        0        
C4        C        0.34375        0.814814        0.14882942307692307        0        
C4        C        0.40625        0.814814        0.14882942307692307        0        
C4        C        0.46875        0.814814        0.14882942307692307        0        
C4        C        0.53125        0.814814        0.14882942307692307        0        
C4        C        0.59375        0.814814        0.14882942307692307        0        
C4        C        0.65625        0.814814        0.14882942307692307        0        
C4        C        0.71875        0.814814        0.14882942307692307        0        
C4        C        0.78125        0.814814        0.14882942307692307        0        
C4        C        0.84375        0.814814        0.14882942307692307        0        
C4        C        0.9062500000000001        0.814814        0.14882942307692307        0        
C4        C        0.9687500000000001        0.814814        0.14882942307692307        0        
C1        C        0.0        0.907408        0.14882942307692307        0        
C1        C        0.0625        0.907408        0.14882942307692307        0        
C1        C        0.125        0.907408        0.14882942307692307        0        
C1        C        0.1875        0.907408        0.14882942307692307        0        
C1        C        0.25        0.907408        0.14882942307692307        0        
C1        C        0.3125        0.907408        0.14882942307692307        0        
C1        C        0.375        0.907408        0.14882942307692307        0        
C1        C        0.4375        0.907408        0.14882942307692307        0        
C1        C        0.5        0.907408        0.14882942307692307        0        
C1        C        0.5625        0.907408        0.14882942307692307        0        
C1        C        0.625        0.907408        0.14882942307692307        0        
C1        C        0.6875        0.907408        0.14882942307692307        0        
C1        C        0.75        0.907408        0.14882942307692307        0        
C1        C        0.8125        0.907408        0.14882942307692307        0        
C1        C        0.875        0.907408        0.14882942307692307        0        
C1        C        0.9375        0.907408        0.14882942307692307        0        
C2        C        0.03125        0.962963        0.14882942307692307        0        
C2        C        0.09375        0.962963        0.14882942307692307        0        
C2        C        0.15625        0.962963        0.14882942307692307        0        
C2        C        0.21875        0.962963        0.14882942307692307        0        
C2        C        0.28125        0.962963        0.14882942307692307        0        
C2        C        0.34375        0.962963        0.14882942307692307        0        
C2        C        0.40625        0.962963        0.14882942307692307        0        
C2        C        0.46875        0.962963        0.14882942307692307        0        
C2        C        0.53125        0.962963        0.14882942307692307        0        
C2        C        0.59375        0.962963        0.14882942307692307        0        
C2        C        0.65625        0.962963        0.14882942307692307        0        
C2        C        0.71875        0.962963        0.14882942307692307        0        
C2        C        0.78125        0.962963        0.14882942307692307        0        
C2        C        0.84375        0.962963        0.14882942307692307        0        
C2        C        0.9062500000000001        0.962963        0.14882942307692307        0        
C2        C        0.9687500000000001        0.962963        0.14882942307692307        0        
C3        C        0.0        0.9814809999999999        0.14882942307692307        0        
C3        C        0.0625        0.9814809999999999        0.14882942307692307        0        
C3        C        0.125        0.9814809999999999        0.14882942307692307        0        
C3        C        0.1875        0.9814809999999999        0.14882942307692307        0        
C3        C        0.25        0.9814809999999999        0.14882942307692307        0        
C3        C        0.3125        0.9814809999999999        0.14882942307692307        0        
C3        C        0.375        0.9814809999999999        0.14882942307692307        0        
C3        C        0.4375        0.9814809999999999        0.14882942307692307        0        
C3        C        0.5        0.9814809999999999        0.14882942307692307        0        
C3        C        0.5625        0.9814809999999999        0.14882942307692307        0        
C3        C        0.625        0.9814809999999999        0.14882942307692307        0        
C3        C        0.6875        0.9814809999999999        0.14882942307692307        0        
C3        C        0.75        0.9814809999999999        0.14882942307692307        0        
C3        C        0.8125        0.9814809999999999        0.14882942307692307        0        
C3        C        0.875        0.9814809999999999        0.14882942307692307        0        
C3        C        0.9375        0.9814809999999999        0.14882942307692307        0        
C4        C        0.03125        0.925925        0.14882942307692307        0        
C4        C        0.09375        0.925925        0.14882942307692307        0        
C4        C        0.15625        0.925925        0.14882942307692307        0        
C4        C        0.21875        0.925925        0.14882942307692307        0        
C4        C        0.28125        0.925925        0.14882942307692307        0        
C4        C        0.34375        0.925925        0.14882942307692307        0        
C4        C        0.40625        0.925925        0.14882942307692307        0        
C4        C        0.46875        0.925925        0.14882942307692307        0        
C4        C        0.53125        0.925925        0.14882942307692307        0        
C4        C        0.59375        0.925925        0.14882942307692307        0        
C4        C        0.65625        0.925925        0.14882942307692307        0        
C4        C        0.71875        0.925925        0.14882942307692307        0        
C4        C        0.78125        0.925925        0.14882942307692307        0        
C4        C        0.84375        0.925925        0.14882942307692307        0        
C4        C        0.9062500000000001        0.925925        0.14882942307692307        0        
C4        C        0.9687500000000001        0.925925        0.14882942307692307        0        
C1        C        0.0        0.018519        0.3635734230769231        0        
C2        C        0.03125        0.074075        0.3635734230769231        0        
C3        C        0.0        0.092592        0.3635734230769231        0        
C4        C        0.03125        0.037037        0.3635734230769231        0        
C1        C        0.0        0.12963        0.3635734230769231        0        
C2        C        0.03125        0.185185        0.3635734230769231        0        
C3        C        0.0        0.203703        0.3635734230769231        0        
C4        C        0.03125        0.148148        0.3635734230769231        0        
C1        C        0.0        0.24074099999999998        0.3635734230769231        0        
C2        C        0.03125        0.296297        0.3635734230769231        0        
C3        C        0.0        0.314815        0.3635734230769231        0        
C4        C        0.03125        0.259259        0.3635734230769231        0        
C1        C        0.0        0.351852        0.3635734230769231        0        
C2        C        0.03125        0.407408        0.3635734230769231        0        
C3        C        0.0        0.42592500000000005        0.3635734230769231        0        
C4        C        0.03125        0.37037        0.3635734230769231        0        
C1        C        0.0        0.46296300000000007        0.3635734230769231        0        
C2        C        0.03125        0.518519        0.3635734230769231        0        
C3        C        0.0        0.537037        0.3635734230769231        0        
C4        C        0.03125        0.481481        0.3635734230769231        0        
C1        C        0.0        0.574075        0.3635734230769231        0        
C2        C        0.03125        0.62963        0.3635734230769231        0        
C3        C        0.0        0.648148        0.3635734230769231        0        
C4        C        0.03125        0.592592        0.3635734230769231        0        
C1        C        0.0625        0.018519        0.3635734230769231        0        
C2        C        0.09375        0.074075        0.3635734230769231        0        
C3        C        0.0625        0.092592        0.3635734230769231        0        
C4        C        0.09375        0.037037        0.3635734230769231        0        
C1        C        0.0625        0.12963        0.3635734230769231        0        
C2        C        0.09375        0.185185        0.3635734230769231        0        
C3        C        0.0625        0.203703        0.3635734230769231        0        
C4        C        0.09375        0.148148        0.3635734230769231        0        
C1        C        0.0625        0.24074099999999998        0.3635734230769231        0        
C2        C        0.09375        0.296297        0.3635734230769231        0        
C3        C        0.0625        0.314815        0.3635734230769231        0        
C4        C        0.09375        0.259259        0.3635734230769231        0        
C1        C        0.0625        0.351852        0.3635734230769231        0        
C2        C        0.09375        0.407408        0.3635734230769231        0        
C3        C        0.0625        0.42592500000000005        0.3635734230769231        0        
C4        C        0.09375        0.37037        0.3635734230769231        0        
C1        C        0.0625        0.46296300000000007        0.3635734230769231        0        
C2        C        0.09375        0.518519        0.3635734230769231        0        
C3        C        0.0625        0.537037        0.3635734230769231        0        
C4        C        0.09375        0.481481        0.3635734230769231        0        
C1        C        0.0625        0.574075        0.3635734230769231        0        
C2        C        0.09375        0.62963        0.3635734230769231        0        
C3        C        0.0625        0.648148        0.3635734230769231        0        
C4        C        0.09375        0.592592        0.3635734230769231        0        
C1        C        0.125        0.018519        0.3635734230769231        0        
C2        C        0.15625        0.074075        0.3635734230769231        0        
C3        C        0.125        0.092592        0.3635734230769231        0        
C4        C        0.15625        0.037037        0.3635734230769231        0        
C1        C        0.125        0.12963        0.3635734230769231        0        
C2        C        0.15625        0.185185        0.3635734230769231        0        
C3        C        0.125        0.203703        0.3635734230769231        0        
C4        C        0.15625        0.148148        0.3635734230769231        0        
C1        C        0.125        0.24074099999999998        0.3635734230769231        0        
C2        C        0.15625        0.296297        0.3635734230769231        0        
C3        C        0.125        0.314815        0.3635734230769231        0        
C4        C        0.15625        0.259259        0.3635734230769231        0        
C1        C        0.125        0.351852        0.3635734230769231        0        
C2        C        0.15625        0.407408        0.3635734230769231        0        
C3        C        0.125        0.42592500000000005        0.3635734230769231        0        
C4        C        0.15625        0.37037        0.3635734230769231        0        
C1        C        0.125        0.46296300000000007        0.3635734230769231        0        
C2        C        0.15625        0.518519        0.3635734230769231        0        
C3        C        0.125        0.537037        0.3635734230769231        0        
C4        C        0.15625        0.481481        0.3635734230769231        0        
C1        C        0.125        0.574075        0.3635734230769231        0        
C2        C        0.15625        0.62963        0.3635734230769231        0        
C3        C        0.125        0.648148        0.3635734230769231        0        
C4        C        0.15625        0.592592        0.3635734230769231        0        
C1        C        0.1875        0.018519        0.3635734230769231        0        
C2        C        0.21875        0.074075        0.3635734230769231        0        
C3        C        0.1875        0.092592        0.3635734230769231        0        
C4        C        0.21875        0.037037        0.3635734230769231        0        
C1        C        0.1875        0.12963        0.3635734230769231        0        
C2        C        0.21875        0.185185        0.3635734230769231        0        
C3        C        0.1875        0.203703        0.3635734230769231        0        
C4        C        0.21875        0.148148        0.3635734230769231        0        
C1        C        0.1875        0.24074099999999998        0.3635734230769231        0        
C2        C        0.21875        0.296297        0.3635734230769231        0        
C3        C        0.1875        0.314815        0.3635734230769231        0        
C4        C        0.21875        0.259259        0.3635734230769231        0        
C1        C        0.1875        0.351852        0.3635734230769231        0        
C2        C        0.21875        0.407408        0.3635734230769231        0        
C3        C        0.1875        0.42592500000000005        0.3635734230769231        0        
C4        C        0.21875        0.37037        0.3635734230769231        0        
C1        C        0.1875        0.46296300000000007        0.3635734230769231        0        
C2        C        0.21875        0.518519        0.3635734230769231        0        
C3        C        0.1875        0.537037        0.3635734230769231        0        
C4        C        0.21875        0.481481        0.3635734230769231        0        
C1        C        0.1875        0.574075        0.3635734230769231        0        
C2        C        0.21875        0.62963        0.3635734230769231        0        
C3        C        0.1875        0.648148        0.3635734230769231        0        
C4        C        0.21875        0.592592        0.3635734230769231        0        
C1        C        0.25        0.018519        0.3635734230769231        0        
C2        C        0.28125        0.074075        0.3635734230769231        0        
C3        C        0.25        0.092592        0.3635734230769231        0        
C4        C        0.28125        0.037037        0.3635734230769231        0        
C1        C        0.25        0.12963        0.3635734230769231        0        
C2        C        0.28125        0.185185        0.3635734230769231        0        
C3        C        0.25        0.203703        0.3635734230769231        0        
C4        C        0.28125        0.148148        0.3635734230769231        0        
C1        C        0.25        0.24074099999999998        0.3635734230769231        0        
C2        C        0.28125        0.296297        0.3635734230769231        0        
C3        C        0.25        0.314815        0.3635734230769231        0        
C4        C        0.28125        0.259259        0.3635734230769231        0        
C1        C        0.25        0.351852        0.3635734230769231        0        
C2        C        0.28125        0.407408        0.3635734230769231        0        
C3        C        0.25        0.42592500000000005        0.3635734230769231        0        
C4        C        0.28125        0.37037        0.3635734230769231        0        
C1        C        0.25        0.46296300000000007        0.3635734230769231        0        
C2        C        0.28125        0.518519        0.3635734230769231        0        
C3        C        0.25        0.537037        0.3635734230769231        0        
C4        C        0.28125        0.481481        0.3635734230769231        0        
C1        C        0.25        0.574075        0.3635734230769231        0        
C2        C        0.28125        0.62963        0.3635734230769231        0        
C3        C        0.25        0.648148        0.3635734230769231        0        
C4        C        0.28125        0.592592        0.3635734230769231        0        
C1        C        0.3125        0.018519        0.3635734230769231        0        
C2        C        0.34375        0.074075        0.3635734230769231        0        
C3        C        0.3125        0.092592        0.3635734230769231        0        
C4        C        0.34375        0.037037        0.3635734230769231        0        
C1        C        0.3125        0.12963        0.3635734230769231        0        
C2        C        0.34375        0.185185        0.3635734230769231        0        
C3        C        0.3125        0.203703        0.3635734230769231        0        
C4        C        0.34375        0.148148        0.3635734230769231        0        
C1        C        0.3125        0.24074099999999998        0.3635734230769231        0        
C2        C        0.34375        0.296297        0.3635734230769231        0        
C3        C        0.3125        0.314815        0.3635734230769231        0        
C4        C        0.34375        0.259259        0.3635734230769231        0        
C1        C        0.3125        0.351852        0.3635734230769231        0        
C2        C        0.34375        0.407408        0.3635734230769231        0        
C3        C        0.3125        0.42592500000000005        0.3635734230769231        0        
C4        C        0.34375        0.37037        0.3635734230769231        0        
C1        C        0.3125        0.46296300000000007        0.3635734230769231        0        
C2        C        0.34375        0.518519        0.3635734230769231        0        
C3        C        0.3125        0.537037        0.3635734230769231        0        
C4        C        0.34375        0.481481        0.3635734230769231        0        
C1        C        0.3125        0.574075        0.3635734230769231        0        
C2        C        0.34375        0.62963        0.3635734230769231        0        
C3        C        0.3125        0.648148        0.3635734230769231        0        
C4        C        0.34375        0.592592        0.3635734230769231        0        
C1        C        0.375        0.018519        0.3635734230769231        0        
C2        C        0.40625        0.074075        0.3635734230769231        0        
C3        C        0.375        0.092592        0.3635734230769231        0        
C4        C        0.40625        0.037037        0.3635734230769231        0        
C1        C        0.375        0.12963        0.3635734230769231        0        
C2        C        0.40625        0.185185        0.3635734230769231        0        
C3        C        0.375        0.203703        0.3635734230769231        0        
C4        C        0.40625        0.148148        0.3635734230769231        0        
C1        C        0.375        0.24074099999999998        0.3635734230769231        0        
C2        C        0.40625        0.296297        0.3635734230769231        0        
C3        C        0.375        0.314815        0.3635734230769231        0        
C4        C        0.40625        0.259259        0.3635734230769231        0        
C1        C        0.375        0.351852        0.3635734230769231        0        
C2        C        0.40625        0.407408        0.3635734230769231        0        
C3        C        0.375        0.42592500000000005        0.3635734230769231        0        
C4        C        0.40625        0.37037        0.3635734230769231        0        
C1        C        0.375        0.46296300000000007        0.3635734230769231        0        
C2        C        0.40625        0.518519        0.3635734230769231        0        
C3        C        0.375        0.537037        0.3635734230769231        0        
C4        C        0.40625        0.481481        0.3635734230769231        0        
C1        C        0.375        0.574075        0.3635734230769231        0        
C2        C        0.40625        0.62963        0.3635734230769231        0        
C3        C        0.375        0.648148        0.3635734230769231        0        
C4        C        0.40625        0.592592        0.3635734230769231        0        
C1        C        0.4375        0.018519        0.3635734230769231        0        
C2        C        0.46875        0.074075        0.3635734230769231        0        
C3        C        0.4375        0.092592        0.3635734230769231        0        
C4        C        0.46875        0.037037        0.3635734230769231        0        
C1        C        0.4375        0.12963        0.3635734230769231        0        
C2        C        0.46875        0.185185        0.3635734230769231        0        
C3        C        0.4375        0.203703        0.3635734230769231        0        
C4        C        0.46875        0.148148        0.3635734230769231        0        
C1        C        0.4375        0.24074099999999998        0.3635734230769231        0        
C2        C        0.46875        0.296297        0.3635734230769231        0        
C3        C        0.4375        0.314815        0.3635734230769231        0        
C4        C        0.46875        0.259259        0.3635734230769231        0        
C1        C        0.4375        0.351852        0.3635734230769231        0        
C2        C        0.46875        0.407408        0.3635734230769231        0        
C3        C        0.4375        0.42592500000000005        0.3635734230769231        0        
C4        C        0.46875        0.37037        0.3635734230769231        0        
C1        C        0.4375        0.46296300000000007        0.3635734230769231        0        
C2        C        0.46875        0.518519        0.3635734230769231        0        
C3        C        0.4375        0.537037        0.3635734230769231        0        
C4        C        0.46875        0.481481        0.3635734230769231        0        
C1        C        0.4375        0.574075        0.3635734230769231        0        
C2        C        0.46875        0.62963        0.3635734230769231        0        
C3        C        0.4375        0.648148        0.3635734230769231        0        
C4        C        0.46875        0.592592        0.3635734230769231        0        
C1        C        0.5        0.018519        0.3635734230769231        0        
C2        C        0.53125        0.074075        0.3635734230769231        0        
C3        C        0.5        0.092592        0.3635734230769231        0        
C4        C        0.53125        0.037037        0.3635734230769231        0        
C1        C        0.5        0.12963        0.3635734230769231        0        
C2        C        0.53125        0.185185        0.3635734230769231        0        
C3        C        0.5        0.203703        0.3635734230769231        0        
C4        C        0.53125        0.148148        0.3635734230769231        0        
C1        C        0.5        0.24074099999999998        0.3635734230769231        0        
C2        C        0.53125        0.296297        0.3635734230769231        0        
C3        C        0.5        0.314815        0.3635734230769231        0        
C4        C        0.53125        0.259259        0.3635734230769231        0        
C1        C        0.5        0.351852        0.3635734230769231        0        
C2        C        0.53125        0.407408        0.3635734230769231        0        
C3        C        0.5        0.42592500000000005        0.3635734230769231        0        
C4        C        0.53125        0.37037        0.3635734230769231        0        
C1        C        0.5        0.46296300000000007        0.3635734230769231        0        
C2        C        0.53125        0.518519        0.3635734230769231        0        
C3        C        0.5        0.537037        0.3635734230769231        0        
C4        C        0.53125        0.481481        0.3635734230769231        0        
C1        C        0.5        0.574075        0.3635734230769231        0        
C2        C        0.53125        0.62963        0.3635734230769231        0        
C3        C        0.5        0.648148        0.3635734230769231        0        
C4        C        0.53125        0.592592        0.3635734230769231        0        
C1        C        0.5625        0.018519        0.3635734230769231        0        
C2        C        0.59375        0.074075        0.3635734230769231        0        
C3        C        0.5625        0.092592        0.3635734230769231        0        
C4        C        0.59375        0.037037        0.3635734230769231        0        
C1        C        0.5625        0.12963        0.3635734230769231        0        
C2        C        0.59375        0.185185        0.3635734230769231        0        
C3        C        0.5625        0.203703        0.3635734230769231        0        
C4        C        0.59375        0.148148        0.3635734230769231        0        
C1        C        0.5625        0.24074099999999998        0.3635734230769231        0        
C2        C        0.59375        0.296297        0.3635734230769231        0        
C3        C        0.5625        0.314815        0.3635734230769231        0        
C4        C        0.59375        0.259259        0.3635734230769231        0        
C1        C        0.5625        0.351852        0.3635734230769231        0        
C2        C        0.59375        0.407408        0.3635734230769231        0        
C3        C        0.5625        0.42592500000000005        0.3635734230769231        0        
C4        C        0.59375        0.37037        0.3635734230769231        0        
C1        C        0.5625        0.46296300000000007        0.3635734230769231        0        
C2        C        0.59375        0.518519        0.3635734230769231        0        
C3        C        0.5625        0.537037        0.3635734230769231        0        
C4        C        0.59375        0.481481        0.3635734230769231        0        
C1        C        0.5625        0.574075        0.3635734230769231        0        
C2        C        0.59375        0.62963        0.3635734230769231        0        
C3        C        0.5625        0.648148        0.3635734230769231        0        
C4        C        0.59375        0.592592        0.3635734230769231        0        
C1        C        0.625        0.018519        0.3635734230769231        0        
C2        C        0.65625        0.074075        0.3635734230769231        0        
C3        C        0.625        0.092592        0.3635734230769231        0        
C4        C        0.65625        0.037037        0.3635734230769231        0        
C1        C        0.625        0.12963        0.3635734230769231        0        
C2        C        0.65625        0.185185        0.3635734230769231        0        
C3        C        0.625        0.203703        0.3635734230769231        0        
C4        C        0.65625        0.148148        0.3635734230769231        0        
C1        C        0.625        0.24074099999999998        0.3635734230769231        0        
C2        C        0.65625        0.296297        0.3635734230769231        0        
C3        C        0.625        0.314815        0.3635734230769231        0        
C4        C        0.65625        0.259259        0.3635734230769231        0        
C1        C        0.625        0.351852        0.3635734230769231        0        
C2        C        0.65625        0.407408        0.3635734230769231        0        
C3        C        0.625        0.42592500000000005        0.3635734230769231        0        
C4        C        0.65625        0.37037        0.3635734230769231        0        
C1        C        0.625        0.46296300000000007        0.3635734230769231        0        
C2        C        0.65625        0.518519        0.3635734230769231        0        
C3        C        0.625        0.537037        0.3635734230769231        0        
C4        C        0.65625        0.481481        0.3635734230769231        0        
C1        C        0.625        0.574075        0.3635734230769231        0        
C2        C        0.65625        0.62963        0.3635734230769231        0        
C3        C        0.625        0.648148        0.3635734230769231        0        
C4        C        0.65625        0.592592        0.3635734230769231        0        
C1        C        0.6875        0.018519        0.3635734230769231        0        
C2        C        0.71875        0.074075        0.3635734230769231        0        
C3        C        0.6875        0.092592        0.3635734230769231        0        
C4        C        0.71875        0.037037        0.3635734230769231        0        
C1        C        0.6875        0.12963        0.3635734230769231        0        
C2        C        0.71875        0.185185        0.3635734230769231        0        
C3        C        0.6875        0.203703        0.3635734230769231        0        
C4        C        0.71875        0.148148        0.3635734230769231        0        
C1        C        0.6875        0.24074099999999998        0.3635734230769231        0        
C2        C        0.71875        0.296297        0.3635734230769231        0        
C3        C        0.6875        0.314815        0.3635734230769231        0        
C4        C        0.71875        0.259259        0.3635734230769231        0        
C1        C        0.6875        0.351852        0.3635734230769231        0        
C2        C        0.71875        0.407408        0.3635734230769231        0        
C3        C        0.6875        0.42592500000000005        0.3635734230769231        0        
C4        C        0.71875        0.37037        0.3635734230769231        0        
C1        C        0.6875        0.46296300000000007        0.3635734230769231        0        
C2        C        0.71875        0.518519        0.3635734230769231        0        
C3        C        0.6875        0.537037        0.3635734230769231        0        
C4        C        0.71875        0.481481        0.3635734230769231        0        
C1        C        0.6875        0.574075        0.3635734230769231        0        
C2        C        0.71875        0.62963        0.3635734230769231        0        
C3        C        0.6875        0.648148        0.3635734230769231        0        
C4        C        0.71875        0.592592        0.3635734230769231        0        
C1        C        0.75        0.018519        0.3635734230769231        0        
C2        C        0.78125        0.074075        0.3635734230769231        0        
C3        C        0.75        0.092592        0.3635734230769231        0        
C4        C        0.78125        0.037037        0.3635734230769231        0        
C1        C        0.75        0.12963        0.3635734230769231        0        
C2        C        0.78125        0.185185        0.3635734230769231        0        
C3        C        0.75        0.203703        0.3635734230769231        0        
C4        C        0.78125        0.148148        0.3635734230769231        0        
C1        C        0.75        0.24074099999999998        0.3635734230769231        0        
C2        C        0.78125        0.296297        0.3635734230769231        0        
C3        C        0.75        0.314815        0.3635734230769231        0        
C4        C        0.78125        0.259259        0.3635734230769231        0        
C1        C        0.75        0.351852        0.3635734230769231        0        
C2        C        0.78125        0.407408        0.3635734230769231        0        
C3        C        0.75        0.42592500000000005        0.3635734230769231        0        
C4        C        0.78125        0.37037        0.3635734230769231        0        
C1        C        0.75        0.46296300000000007        0.3635734230769231        0        
C2        C        0.78125        0.518519        0.3635734230769231        0        
C3        C        0.75        0.537037        0.3635734230769231        0        
C4        C        0.78125        0.481481        0.3635734230769231        0        
C1        C        0.75        0.574075        0.3635734230769231        0        
C2        C        0.78125        0.62963        0.3635734230769231        0        
C3        C        0.75        0.648148        0.3635734230769231        0        
C4        C        0.78125        0.592592        0.3635734230769231        0        
C1        C        0.8125        0.018519        0.3635734230769231        0        
C2        C        0.84375        0.074075        0.3635734230769231        0        
C3        C        0.8125        0.092592        0.3635734230769231        0        
C4        C        0.84375        0.037037        0.3635734230769231        0        
C1        C        0.8125        0.12963        0.3635734230769231        0        
C2        C        0.84375        0.185185        0.3635734230769231        0        
C3        C        0.8125        0.203703        0.3635734230769231        0        
C4        C        0.84375        0.148148        0.3635734230769231        0        
C1        C        0.8125        0.24074099999999998        0.3635734230769231        0        
C2        C        0.84375        0.296297        0.3635734230769231        0        
C3        C        0.8125        0.314815        0.3635734230769231        0        
C4        C        0.84375        0.259259        0.3635734230769231        0        
C1        C        0.8125        0.351852        0.3635734230769231        0        
C2        C        0.84375        0.407408        0.3635734230769231        0        
C3        C        0.8125        0.42592500000000005        0.3635734230769231        0        
C4        C        0.84375        0.37037        0.3635734230769231        0        
C1        C        0.8125        0.46296300000000007        0.3635734230769231        0        
C2        C        0.84375        0.518519        0.3635734230769231        0        
C3        C        0.8125        0.537037        0.3635734230769231        0        
C4        C        0.84375        0.481481        0.3635734230769231        0        
C1        C        0.8125        0.574075        0.3635734230769231        0        
C2        C        0.84375        0.62963        0.3635734230769231        0        
C3        C        0.8125        0.648148        0.3635734230769231        0        
C4        C        0.84375        0.592592        0.3635734230769231        0        
C1        C        0.875        0.018519        0.3635734230769231        0        
C2        C        0.9062500000000001        0.074075        0.3635734230769231        0        
C3        C        0.875        0.092592        0.3635734230769231        0        
C4        C        0.9062500000000001        0.037037        0.3635734230769231        0        
C1        C        0.875        0.12963        0.3635734230769231        0        
C2        C        0.9062500000000001        0.185185        0.3635734230769231        0        
C3        C        0.875        0.203703        0.3635734230769231        0        
C4        C        0.9062500000000001        0.148148        0.3635734230769231        0        
C1        C        0.875        0.24074099999999998        0.3635734230769231        0        
C2        C        0.9062500000000001        0.296297        0.3635734230769231        0        
C3        C        0.875        0.314815        0.3635734230769231        0        
C4        C        0.9062500000000001        0.259259        0.3635734230769231        0        
C1        C        0.875        0.351852        0.3635734230769231        0        
C2        C        0.9062500000000001        0.407408        0.3635734230769231        0        
C3        C        0.875        0.42592500000000005        0.3635734230769231        0        
C4        C        0.9062500000000001        0.37037        0.3635734230769231        0        
C1        C        0.875        0.46296300000000007        0.3635734230769231        0        
C2        C        0.9062500000000001        0.518519        0.3635734230769231        0        
C3        C        0.875        0.537037        0.3635734230769231        0        
C4        C        0.9062500000000001        0.481481        0.3635734230769231        0        
C1        C        0.875        0.574075        0.3635734230769231        0        
C2        C        0.9062500000000001        0.62963        0.3635734230769231        0        
C3        C        0.875        0.648148        0.3635734230769231        0        
C4        C        0.9062500000000001        0.592592        0.3635734230769231        0        
C1        C        0.9375        0.018519        0.3635734230769231        0        
C2        C        0.9687500000000001        0.074075        0.3635734230769231        0        
C3        C        0.9375        0.092592        0.3635734230769231        0        
C4        C        0.9687500000000001        0.037037        0.3635734230769231        0        
C1        C        0.9375        0.12963        0.3635734230769231        0        
C2        C        0.9687500000000001        0.185185        0.3635734230769231        0        
C3        C        0.9375        0.203703        0.3635734230769231        0        
C4        C        0.9687500000000001        0.148148        0.3635734230769231        0        
C1        C        0.9375        0.24074099999999998        0.3635734230769231        0        
C2        C        0.9687500000000001        0.296297        0.3635734230769231        0        
C3        C        0.9375        0.314815        0.3635734230769231        0        
C4        C        0.9687500000000001        0.259259        0.3635734230769231        0        
C1        C        0.9375        0.351852        0.3635734230769231        0        
C2        C        0.9687500000000001        0.407408        0.3635734230769231        0        
C3        C        0.9375        0.42592500000000005        0.3635734230769231        0        
C4        C        0.9687500000000001        0.37037        0.3635734230769231        0        
C1        C        0.9375        0.46296300000000007        0.3635734230769231        0        
C2        C        0.9687500000000001        0.518519        0.3635734230769231        0        
C3        C        0.9375        0.537037        0.3635734230769231        0        
C4        C        0.9687500000000001        0.481481        0.3635734230769231        0        
C1        C        0.9375        0.574075        0.3635734230769231        0        
C2        C        0.9687500000000001        0.62963        0.3635734230769231        0        
C3        C        0.9375        0.648148        0.3635734230769231        0        
C4        C        0.9687500000000001        0.592592        0.3635734230769231        0        
C1        C        0.0        0.685186        0.3635734230769231        0        
C1        C        0.0625        0.685186        0.3635734230769231        0        
C1        C        0.125        0.685186        0.3635734230769231        0        
C1        C        0.1875        0.685186        0.3635734230769231        0        
C1        C        0.25        0.685186        0.3635734230769231        0        
C1        C        0.3125        0.685186        0.3635734230769231        0        
C1        C        0.375        0.685186        0.3635734230769231        0        
C1        C        0.4375        0.685186        0.3635734230769231        0        
C1        C        0.5        0.685186        0.3635734230769231        0        
C1        C        0.5625        0.685186        0.3635734230769231        0        
C1        C        0.625        0.685186        0.3635734230769231        0        
C1        C        0.6875        0.685186        0.3635734230769231        0        
C1        C        0.75        0.685186        0.3635734230769231        0        
C1        C        0.8125        0.685186        0.3635734230769231        0        
C1        C        0.875        0.685186        0.3635734230769231        0        
C1        C        0.9375        0.685186        0.3635734230769231        0        
C2        C        0.03125        0.740741        0.3635734230769231        0        
C2        C        0.09375        0.740741        0.3635734230769231        0        
C2        C        0.15625        0.740741        0.3635734230769231        0        
C2        C        0.21875        0.740741        0.3635734230769231        0        
C2        C        0.28125        0.740741        0.3635734230769231        0        
C2        C        0.34375        0.740741        0.3635734230769231        0        
C2        C        0.40625        0.740741        0.3635734230769231        0        
C2        C        0.46875        0.740741        0.3635734230769231        0        
C2        C        0.53125        0.740741        0.3635734230769231        0        
C2        C        0.59375        0.740741        0.3635734230769231        0        
C2        C        0.65625        0.740741        0.3635734230769231        0        
C2        C        0.71875        0.740741        0.3635734230769231        0        
C2        C        0.78125        0.740741        0.3635734230769231        0        
C2        C        0.84375        0.740741        0.3635734230769231        0        
C2        C        0.9062500000000001        0.740741        0.3635734230769231        0        
C2        C        0.9687500000000001        0.740741        0.3635734230769231        0        
C3        C        0.0        0.759259        0.3635734230769231        0        
C3        C        0.0625        0.759259        0.3635734230769231        0        
C3        C        0.125        0.759259        0.3635734230769231        0        
C3        C        0.1875        0.759259        0.3635734230769231        0        
C3        C        0.25        0.759259        0.3635734230769231        0        
C3        C        0.3125        0.759259        0.3635734230769231        0        
C3        C        0.375        0.759259        0.3635734230769231        0        
C3        C        0.4375        0.759259        0.3635734230769231        0        
C3        C        0.5        0.759259        0.3635734230769231        0        
C3        C        0.5625        0.759259        0.3635734230769231        0        
C3        C        0.625        0.759259        0.3635734230769231        0        
C3        C        0.6875        0.759259        0.3635734230769231        0        
C3        C        0.75        0.759259        0.3635734230769231        0        
C3        C        0.8125        0.759259        0.3635734230769231        0        
C3        C        0.875        0.759259        0.3635734230769231        0        
C3        C        0.9375        0.759259        0.3635734230769231        0        
C4        C        0.03125        0.703703        0.3635734230769231        0        
C4        C        0.09375        0.703703        0.3635734230769231        0        
C4        C        0.15625        0.703703        0.3635734230769231        0        
C4        C        0.21875        0.703703        0.3635734230769231        0        
C4        C        0.28125        0.703703        0.3635734230769231        0        
C4        C        0.34375        0.703703        0.3635734230769231        0        
C4        C        0.40625        0.703703        0.3635734230769231        0        
C4        C        0.46875        0.703703        0.3635734230769231        0        
C4        C        0.53125        0.703703        0.3635734230769231        0        
C4        C        0.59375        0.703703        0.3635734230769231        0        
C4        C        0.65625        0.703703        0.3635734230769231        0        
C4        C        0.71875        0.703703        0.3635734230769231        0        
C4        C        0.78125        0.703703        0.3635734230769231        0        
C4        C        0.84375        0.703703        0.3635734230769231        0        
C4        C        0.9062500000000001        0.703703        0.3635734230769231        0        
C4        C        0.9687500000000001        0.703703        0.3635734230769231        0        
C1        C        0.0        0.796297        0.3635734230769231        0        
C1        C        0.0625        0.796297        0.3635734230769231        0        
C1        C        0.125        0.796297        0.3635734230769231        0        
C1        C        0.1875        0.796297        0.3635734230769231        0        
C1        C        0.25        0.796297        0.3635734230769231        0        
C1        C        0.3125        0.796297        0.3635734230769231        0        
C1        C        0.375        0.796297        0.3635734230769231        0        
C1        C        0.4375        0.796297        0.3635734230769231        0        
C1        C        0.5        0.796297        0.3635734230769231        0        
C1        C        0.5625        0.796297        0.3635734230769231        0        
C1        C        0.625        0.796297        0.3635734230769231        0        
C1        C        0.6875        0.796297        0.3635734230769231        0        
C1        C        0.75        0.796297        0.3635734230769231        0        
C1        C        0.8125        0.796297        0.3635734230769231        0        
C1        C        0.875        0.796297        0.3635734230769231        0        
C1        C        0.9375        0.796297        0.3635734230769231        0        
C2        C        0.03125        0.851852        0.3635734230769231        0        
C2        C        0.09375        0.851852        0.3635734230769231        0        
C2        C        0.15625        0.851852        0.3635734230769231        0        
C2        C        0.21875        0.851852        0.3635734230769231        0        
C2        C        0.28125        0.851852        0.3635734230769231        0        
C2        C        0.34375        0.851852        0.3635734230769231        0        
C2        C        0.40625        0.851852        0.3635734230769231        0        
C2        C        0.46875        0.851852        0.3635734230769231        0        
C2        C        0.53125        0.851852        0.3635734230769231        0        
C2        C        0.59375        0.851852        0.3635734230769231        0        
C2        C        0.65625        0.851852        0.3635734230769231        0        
C2        C        0.71875        0.851852        0.3635734230769231        0        
C2        C        0.78125        0.851852        0.3635734230769231        0        
C2        C        0.84375        0.851852        0.3635734230769231        0        
C2        C        0.9062500000000001        0.851852        0.3635734230769231        0        
C2        C        0.9687500000000001        0.851852        0.3635734230769231        0        
C3        C        0.0        0.87037        0.3635734230769231        0        
C3        C        0.0625        0.87037        0.3635734230769231        0        
C3        C        0.125        0.87037        0.3635734230769231        0        
C3        C        0.1875        0.87037        0.3635734230769231        0        
C3        C        0.25        0.87037        0.3635734230769231        0        
C3        C        0.3125        0.87037        0.3635734230769231        0        
C3        C        0.375        0.87037        0.3635734230769231        0        
C3        C        0.4375        0.87037        0.3635734230769231        0        
C3        C        0.5        0.87037        0.3635734230769231        0        
C3        C        0.5625        0.87037        0.3635734230769231        0        
C3        C        0.625        0.87037        0.3635734230769231        0        
C3        C        0.6875        0.87037        0.3635734230769231        0        
C3        C        0.75        0.87037        0.3635734230769231        0        
C3        C        0.8125        0.87037        0.3635734230769231        0        
C3        C        0.875        0.87037        0.3635734230769231        0        
C3        C        0.9375        0.87037        0.3635734230769231        0        
C4        C        0.03125        0.814814        0.3635734230769231        0        
C4        C        0.09375        0.814814        0.3635734230769231        0        
C4        C        0.15625        0.814814        0.3635734230769231        0        
C4        C        0.21875        0.814814        0.3635734230769231        0        
C4        C        0.28125        0.814814        0.3635734230769231        0        
C4        C        0.34375        0.814814        0.3635734230769231        0        
C4        C        0.40625        0.814814        0.3635734230769231        0        
C4        C        0.46875        0.814814        0.3635734230769231        0        
C4        C        0.53125        0.814814        0.3635734230769231        0        
C4        C        0.59375        0.814814        0.3635734230769231        0        
C4        C        0.65625        0.814814        0.3635734230769231        0        
C4        C        0.71875        0.814814        0.3635734230769231        0        
C4        C        0.78125        0.814814        0.3635734230769231        0        
C4        C        0.84375        0.814814        0.3635734230769231        0        
C4        C        0.9062500000000001        0.814814        0.3635734230769231        0        
C4        C        0.9687500000000001        0.814814        0.3635734230769231        0        
C1        C        0.0        0.907408        0.3635734230769231        0        
C1        C        0.0625        0.907408        0.3635734230769231        0        
C1        C        0.125        0.907408        0.3635734230769231        0        
C1        C        0.1875        0.907408        0.3635734230769231        0        
C1        C        0.25        0.907408        0.3635734230769231        0        
C1        C        0.3125        0.907408        0.3635734230769231        0        
C1        C        0.375        0.907408        0.3635734230769231        0        
C1        C        0.4375        0.907408        0.3635734230769231        0        
C1        C        0.5        0.907408        0.3635734230769231        0        
C1        C        0.5625        0.907408        0.3635734230769231        0        
C1        C        0.625        0.907408        0.3635734230769231        0        
C1        C        0.6875        0.907408        0.3635734230769231        0        
C1        C        0.75        0.907408        0.3635734230769231        0        
C1        C        0.8125        0.907408        0.3635734230769231        0        
C1        C        0.875        0.907408        0.3635734230769231        0        
C1        C        0.9375        0.907408        0.3635734230769231        0        
C2        C        0.03125        0.962963        0.3635734230769231        0        
C2        C        0.09375        0.962963        0.3635734230769231        0        
C2        C        0.15625        0.962963        0.3635734230769231        0        
C2        C        0.21875        0.962963        0.3635734230769231        0        
C2        C        0.28125        0.962963        0.3635734230769231        0        
C2        C        0.34375        0.962963        0.3635734230769231        0        
C2        C        0.40625        0.962963        0.3635734230769231        0        
C2        C        0.46875        0.962963        0.3635734230769231        0        
C2        C        0.53125        0.962963        0.3635734230769231        0        
C2        C        0.59375        0.962963        0.3635734230769231        0        
C2        C        0.65625        0.962963        0.3635734230769231        0        
C2        C        0.71875        0.962963        0.3635734230769231        0        
C2        C        0.78125        0.962963        0.3635734230769231        0        
C2        C        0.84375        0.962963        0.3635734230769231        0        
C2        C        0.9062500000000001        0.962963        0.3635734230769231        0        
C2        C        0.9687500000000001        0.962963        0.3635734230769231        0        
C3        C        0.0        0.9814809999999999        0.3635734230769231        0        
C3        C        0.0625        0.9814809999999999        0.3635734230769231        0        
C3        C        0.125        0.9814809999999999        0.3635734230769231        0        
C3        C        0.1875        0.9814809999999999        0.3635734230769231        0        
C3        C        0.25        0.9814809999999999        0.3635734230769231        0        
C3        C        0.3125        0.9814809999999999        0.3635734230769231        0        
C3        C        0.375        0.9814809999999999        0.3635734230769231        0        
C3        C        0.4375        0.9814809999999999        0.3635734230769231        0        
C3        C        0.5        0.9814809999999999        0.3635734230769231        0        
C3        C        0.5625        0.9814809999999999        0.3635734230769231        0        
C3        C        0.625        0.9814809999999999        0.3635734230769231        0        
C3        C        0.6875        0.9814809999999999        0.3635734230769231        0        
C3        C        0.75        0.9814809999999999        0.3635734230769231        0        
C3        C        0.8125        0.9814809999999999        0.3635734230769231        0        
C3        C        0.875        0.9814809999999999        0.3635734230769231        0        
C3        C        0.9375        0.9814809999999999        0.3635734230769231        0        
C4        C        0.03125        0.925925        0.3635734230769231        0        
C4        C        0.09375        0.925925        0.3635734230769231        0        
C4        C        0.15625        0.925925        0.3635734230769231        0        
C4        C        0.21875        0.925925        0.3635734230769231        0        
C4        C        0.28125        0.925925        0.3635734230769231        0        
C4        C        0.34375        0.925925        0.3635734230769231        0        
C4        C        0.40625        0.925925        0.3635734230769231        0        
C4        C        0.46875        0.925925        0.3635734230769231        0        
C4        C        0.53125        0.925925        0.3635734230769231        0        
C4        C        0.59375        0.925925        0.3635734230769231        0        
C4        C        0.65625        0.925925        0.3635734230769231        0        
C4        C        0.71875        0.925925        0.3635734230769231        0        
C4        C        0.78125        0.925925        0.3635734230769231        0        
C4        C        0.84375        0.925925        0.3635734230769231        0        
C4        C        0.9062500000000001        0.925925        0.3635734230769231        0        
C4        C        0.9687500000000001        0.925925        0.3635734230769231        0        
C1        C        0.0        0.018519        0.5783164230769231        0        
C2        C        0.03125        0.074075        0.5783164230769231        0        
C3        C        0.0        0.092592        0.5783164230769231        0        
C4        C        0.03125        0.037037        0.5783164230769231        0        
C1        C        0.0        0.12963        0.5783164230769231        0        
C2        C        0.03125        0.185185        0.5783164230769231        0        
C3        C        0.0        0.203703        0.5783164230769231        0        
C4        C        0.03125        0.148148        0.5783164230769231        0        
C1        C        0.0        0.24074099999999998        0.5783164230769231        0        
C2        C        0.03125        0.296297        0.5783164230769231        0        
C3        C        0.0        0.314815        0.5783164230769231        0        
C4        C        0.03125        0.259259        0.5783164230769231        0        
C1        C        0.0        0.351852        0.5783164230769231        0        
C2        C        0.03125        0.407408        0.5783164230769231        0        
C3        C        0.0        0.42592500000000005        0.5783164230769231        0        
C4        C        0.03125        0.37037        0.5783164230769231        0        
C1        C        0.0        0.46296300000000007        0.5783164230769231        0        
C2        C        0.03125        0.518519        0.5783164230769231        0        
C3        C        0.0        0.537037        0.5783164230769231        0        
C4        C        0.03125        0.481481        0.5783164230769231        0        
C1        C        0.0        0.574075        0.5783164230769231        0        
C2        C        0.03125        0.62963        0.5783164230769231        0        
C3        C        0.0        0.648148        0.5783164230769231        0        
C4        C        0.03125        0.592592        0.5783164230769231        0        
C1        C        0.0625        0.018519        0.5783164230769231        0        
C2        C        0.09375        0.074075        0.5783164230769231        0        
C3        C        0.0625        0.092592        0.5783164230769231        0        
C4        C        0.09375        0.037037        0.5783164230769231        0        
C1        C        0.0625        0.12963        0.5783164230769231        0        
C2        C        0.09375        0.185185        0.5783164230769231        0        
C3        C        0.0625        0.203703        0.5783164230769231        0        
C4        C        0.09375        0.148148        0.5783164230769231        0        
C1        C        0.0625        0.24074099999999998        0.5783164230769231        0        
C2        C        0.09375        0.296297        0.5783164230769231        0        
C3        C        0.0625        0.314815        0.5783164230769231        0        
C4        C        0.09375        0.259259        0.5783164230769231        0        
C1        C        0.0625        0.351852        0.5783164230769231        0        
C2        C        0.09375        0.407408        0.5783164230769231        0        
C3        C        0.0625        0.42592500000000005        0.5783164230769231        0        
C4        C        0.09375        0.37037        0.5783164230769231        0        
C1        C        0.0625        0.46296300000000007        0.5783164230769231        0        
C2        C        0.09375        0.518519        0.5783164230769231        0        
C3        C        0.0625        0.537037        0.5783164230769231        0        
C4        C        0.09375        0.481481        0.5783164230769231        0        
C1        C        0.0625        0.574075        0.5783164230769231        0        
C2        C        0.09375        0.62963        0.5783164230769231        0        
C3        C        0.0625        0.648148        0.5783164230769231        0        
C4        C        0.09375        0.592592        0.5783164230769231        0        
C1        C        0.125        0.018519        0.5783164230769231        0        
C2        C        0.15625        0.074075        0.5783164230769231        0        
C3        C        0.125        0.092592        0.5783164230769231        0        
C4        C        0.15625        0.037037        0.5783164230769231        0        
C1        C        0.125        0.12963        0.5783164230769231        0        
C2        C        0.15625        0.185185        0.5783164230769231        0        
C3        C        0.125        0.203703        0.5783164230769231        0        
C4        C        0.15625        0.148148        0.5783164230769231        0        
C1        C        0.125        0.24074099999999998        0.5783164230769231        0        
C2        C        0.15625        0.296297        0.5783164230769231        0        
C3        C        0.125        0.314815        0.5783164230769231        0        
C4        C        0.15625        0.259259        0.5783164230769231        0        
C1        C        0.125        0.351852        0.5783164230769231        0        
C2        C        0.15625        0.407408        0.5783164230769231        0        
C3        C        0.125        0.42592500000000005        0.5783164230769231        0        
C4        C        0.15625        0.37037        0.5783164230769231        0        
C1        C        0.125        0.46296300000000007        0.5783164230769231        0        
C2        C        0.15625        0.518519        0.5783164230769231        0        
C3        C        0.125        0.537037        0.5783164230769231        0        
C4        C        0.15625        0.481481        0.5783164230769231        0        
C1        C        0.125        0.574075        0.5783164230769231        0        
C2        C        0.15625        0.62963        0.5783164230769231        0        
C3        C        0.125        0.648148        0.5783164230769231        0        
C4        C        0.15625        0.592592        0.5783164230769231        0        
C1        C        0.1875        0.018519        0.5783164230769231        0        
C2        C        0.21875        0.074075        0.5783164230769231        0        
C3        C        0.1875        0.092592        0.5783164230769231        0        
C4        C        0.21875        0.037037        0.5783164230769231        0        
C1        C        0.1875        0.12963        0.5783164230769231        0        
C2        C        0.21875        0.185185        0.5783164230769231        0        
C3        C        0.1875        0.203703        0.5783164230769231        0        
C4        C        0.21875        0.148148        0.5783164230769231        0        
C1        C        0.1875        0.24074099999999998        0.5783164230769231        0        
C2        C        0.21875        0.296297        0.5783164230769231        0        
C3        C        0.1875        0.314815        0.5783164230769231        0        
C4        C        0.21875        0.259259        0.5783164230769231        0        
C1        C        0.1875        0.351852        0.5783164230769231        0        
C2        C        0.21875        0.407408        0.5783164230769231        0        
C3        C        0.1875        0.42592500000000005        0.5783164230769231        0        
C4        C        0.21875        0.37037        0.5783164230769231        0        
C1        C        0.1875        0.46296300000000007        0.5783164230769231        0        
C2        C        0.21875        0.518519        0.5783164230769231        0        
C3        C        0.1875        0.537037        0.5783164230769231        0        
C4        C        0.21875        0.481481        0.5783164230769231        0        
C1        C        0.1875        0.574075        0.5783164230769231        0        
C2        C        0.21875        0.62963        0.5783164230769231        0        
C3        C        0.1875        0.648148        0.5783164230769231        0        
C4        C        0.21875        0.592592        0.5783164230769231        0        
C1        C        0.25        0.018519        0.5783164230769231        0        
C2        C        0.28125        0.074075        0.5783164230769231        0        
C3        C        0.25        0.092592        0.5783164230769231        0        
C4        C        0.28125        0.037037        0.5783164230769231        0        
C1        C        0.25        0.12963        0.5783164230769231        0        
C2        C        0.28125        0.185185        0.5783164230769231        0        
C3        C        0.25        0.203703        0.5783164230769231        0        
C4        C        0.28125        0.148148        0.5783164230769231        0        
C1        C        0.25        0.24074099999999998        0.5783164230769231        0        
C2        C        0.28125        0.296297        0.5783164230769231        0        
C3        C        0.25        0.314815        0.5783164230769231        0        
C4        C        0.28125        0.259259        0.5783164230769231        0        
C1        C        0.25        0.351852        0.5783164230769231        0        
C2        C        0.28125        0.407408        0.5783164230769231        0        
C3        C        0.25        0.42592500000000005        0.5783164230769231        0        
C4        C        0.28125        0.37037        0.5783164230769231        0        
C1        C        0.25        0.46296300000000007        0.5783164230769231        0        
C2        C        0.28125        0.518519        0.5783164230769231        0        
C3        C        0.25        0.537037        0.5783164230769231        0        
C4        C        0.28125        0.481481        0.5783164230769231        0        
C1        C        0.25        0.574075        0.5783164230769231        0        
C2        C        0.28125        0.62963        0.5783164230769231        0        
C3        C        0.25        0.648148        0.5783164230769231        0        
C4        C        0.28125        0.592592        0.5783164230769231        0        
C1        C        0.3125        0.018519        0.5783164230769231        0        
C2        C        0.34375        0.074075        0.5783164230769231        0        
C3        C        0.3125        0.092592        0.5783164230769231        0        
C4        C        0.34375        0.037037        0.5783164230769231        0        
C1        C        0.3125        0.12963        0.5783164230769231        0        
C2        C        0.34375        0.185185        0.5783164230769231        0        
C3        C        0.3125        0.203703        0.5783164230769231        0        
C4        C        0.34375        0.148148        0.5783164230769231        0        
C1        C        0.3125        0.24074099999999998        0.5783164230769231        0        
C2        C        0.34375        0.296297        0.5783164230769231        0        
C3        C        0.3125        0.314815        0.5783164230769231        0        
C4        C        0.34375        0.259259        0.5783164230769231        0        
C1        C        0.3125        0.351852        0.5783164230769231        0        
C2        C        0.34375        0.407408        0.5783164230769231        0        
C3        C        0.3125        0.42592500000000005        0.5783164230769231        0        
C4        C        0.34375        0.37037        0.5783164230769231        0        
C1        C        0.3125        0.46296300000000007        0.5783164230769231        0        
C2        C        0.34375        0.518519        0.5783164230769231        0        
C3        C        0.3125        0.537037        0.5783164230769231        0        
C4        C        0.34375        0.481481        0.5783164230769231        0        
C1        C        0.3125        0.574075        0.5783164230769231        0        
C2        C        0.34375        0.62963        0.5783164230769231        0        
C3        C        0.3125        0.648148        0.5783164230769231        0        
C4        C        0.34375        0.592592        0.5783164230769231        0        
C1        C        0.375        0.018519        0.5783164230769231        0        
C2        C        0.40625        0.074075        0.5783164230769231        0        
C3        C        0.375        0.092592        0.5783164230769231        0        
C4        C        0.40625        0.037037        0.5783164230769231        0        
C1        C        0.375        0.12963        0.5783164230769231        0        
C2        C        0.40625        0.185185        0.5783164230769231        0        
C3        C        0.375        0.203703        0.5783164230769231        0        
C4        C        0.40625        0.148148        0.5783164230769231        0        
C1        C        0.375        0.24074099999999998        0.5783164230769231        0        
C2        C        0.40625        0.296297        0.5783164230769231        0        
C3        C        0.375        0.314815        0.5783164230769231        0        
C4        C        0.40625        0.259259        0.5783164230769231        0        
C1        C        0.375        0.351852        0.5783164230769231        0        
C2        C        0.40625        0.407408        0.5783164230769231        0        
C3        C        0.375        0.42592500000000005        0.5783164230769231        0        
C4        C        0.40625        0.37037        0.5783164230769231        0        
C1        C        0.375        0.46296300000000007        0.5783164230769231        0        
C2        C        0.40625        0.518519        0.5783164230769231        0        
C3        C        0.375        0.537037        0.5783164230769231        0        
C4        C        0.40625        0.481481        0.5783164230769231        0        
C1        C        0.375        0.574075        0.5783164230769231        0        
C2        C        0.40625        0.62963        0.5783164230769231        0        
C3        C        0.375        0.648148        0.5783164230769231        0        
C4        C        0.40625        0.592592        0.5783164230769231        0        
C1        C        0.4375        0.018519        0.5783164230769231        0        
C2        C        0.46875        0.074075        0.5783164230769231        0        
C3        C        0.4375        0.092592        0.5783164230769231        0        
C4        C        0.46875        0.037037        0.5783164230769231        0        
C1        C        0.4375        0.12963        0.5783164230769231        0        
C2        C        0.46875        0.185185        0.5783164230769231        0        
C3        C        0.4375        0.203703        0.5783164230769231        0        
C4        C        0.46875        0.148148        0.5783164230769231        0        
C1        C        0.4375        0.24074099999999998        0.5783164230769231        0        
C2        C        0.46875        0.296297        0.5783164230769231        0        
C3        C        0.4375        0.314815        0.5783164230769231        0        
C4        C        0.46875        0.259259        0.5783164230769231        0        
C1        C        0.4375        0.351852        0.5783164230769231        0        
C2        C        0.46875        0.407408        0.5783164230769231        0        
C3        C        0.4375        0.42592500000000005        0.5783164230769231        0        
C4        C        0.46875        0.37037        0.5783164230769231        0        
C1        C        0.4375        0.46296300000000007        0.5783164230769231        0        
C2        C        0.46875        0.518519        0.5783164230769231        0        
C3        C        0.4375        0.537037        0.5783164230769231        0        
C4        C        0.46875        0.481481        0.5783164230769231        0        
C1        C        0.4375        0.574075        0.5783164230769231        0        
C2        C        0.46875        0.62963        0.5783164230769231        0        
C3        C        0.4375        0.648148        0.5783164230769231        0        
C4        C        0.46875        0.592592        0.5783164230769231        0        
C1        C        0.5        0.018519        0.5783164230769231        0        
C2        C        0.53125        0.074075        0.5783164230769231        0        
C3        C        0.5        0.092592        0.5783164230769231        0        
C4        C        0.53125        0.037037        0.5783164230769231        0        
C1        C        0.5        0.12963        0.5783164230769231        0        
C2        C        0.53125        0.185185        0.5783164230769231        0        
C3        C        0.5        0.203703        0.5783164230769231        0        
C4        C        0.53125        0.148148        0.5783164230769231        0        
C1        C        0.5        0.24074099999999998        0.5783164230769231        0        
C2        C        0.53125        0.296297        0.5783164230769231        0        
C3        C        0.5        0.314815        0.5783164230769231        0        
C4        C        0.53125        0.259259        0.5783164230769231        0        
C1        C        0.5        0.351852        0.5783164230769231        0        
C2        C        0.53125        0.407408        0.5783164230769231        0        
C3        C        0.5        0.42592500000000005        0.5783164230769231        0        
C4        C        0.53125        0.37037        0.5783164230769231        0        
C1        C        0.5        0.46296300000000007        0.5783164230769231        0        
C2        C        0.53125        0.518519        0.5783164230769231        0        
C3        C        0.5        0.537037        0.5783164230769231        0        
C4        C        0.53125        0.481481        0.5783164230769231        0        
C1        C        0.5        0.574075        0.5783164230769231        0        
C2        C        0.53125        0.62963        0.5783164230769231        0        
C3        C        0.5        0.648148        0.5783164230769231        0        
C4        C        0.53125        0.592592        0.5783164230769231        0        
C1        C        0.5625        0.018519        0.5783164230769231        0        
C2        C        0.59375        0.074075        0.5783164230769231        0        
C3        C        0.5625        0.092592        0.5783164230769231        0        
C4        C        0.59375        0.037037        0.5783164230769231        0        
C1        C        0.5625        0.12963        0.5783164230769231        0        
C2        C        0.59375        0.185185        0.5783164230769231        0        
C3        C        0.5625        0.203703        0.5783164230769231        0        
C4        C        0.59375        0.148148        0.5783164230769231        0        
C1        C        0.5625        0.24074099999999998        0.5783164230769231        0        
C2        C        0.59375        0.296297        0.5783164230769231        0        
C3        C        0.5625        0.314815        0.5783164230769231        0        
C4        C        0.59375        0.259259        0.5783164230769231        0        
C1        C        0.5625        0.351852        0.5783164230769231        0        
C2        C        0.59375        0.407408        0.5783164230769231        0        
C3        C        0.5625        0.42592500000000005        0.5783164230769231        0        
C4        C        0.59375        0.37037        0.5783164230769231        0        
C1        C        0.5625        0.46296300000000007        0.5783164230769231        0        
C2        C        0.59375        0.518519        0.5783164230769231        0        
C3        C        0.5625        0.537037        0.5783164230769231        0        
C4        C        0.59375        0.481481        0.5783164230769231        0        
C1        C        0.5625        0.574075        0.5783164230769231        0        
C2        C        0.59375        0.62963        0.5783164230769231        0        
C3        C        0.5625        0.648148        0.5783164230769231        0        
C4        C        0.59375        0.592592        0.5783164230769231        0        
C1        C        0.625        0.018519        0.5783164230769231        0        
C2        C        0.65625        0.074075        0.5783164230769231        0        
C3        C        0.625        0.092592        0.5783164230769231        0        
C4        C        0.65625        0.037037        0.5783164230769231        0        
C1        C        0.625        0.12963        0.5783164230769231        0        
C2        C        0.65625        0.185185        0.5783164230769231        0        
C3        C        0.625        0.203703        0.5783164230769231        0        
C4        C        0.65625        0.148148        0.5783164230769231        0        
C1        C        0.625        0.24074099999999998        0.5783164230769231        0        
C2        C        0.65625        0.296297        0.5783164230769231        0        
C3        C        0.625        0.314815        0.5783164230769231        0        
C4        C        0.65625        0.259259        0.5783164230769231        0        
C1        C        0.625        0.351852        0.5783164230769231        0        
C2        C        0.65625        0.407408        0.5783164230769231        0        
C3        C        0.625        0.42592500000000005        0.5783164230769231        0        
C4        C        0.65625        0.37037        0.5783164230769231        0        
C1        C        0.625        0.46296300000000007        0.5783164230769231        0        
C2        C        0.65625        0.518519        0.5783164230769231        0        
C3        C        0.625        0.537037        0.5783164230769231        0        
C4        C        0.65625        0.481481        0.5783164230769231        0        
C1        C        0.625        0.574075        0.5783164230769231        0        
C2        C        0.65625        0.62963        0.5783164230769231        0        
C3        C        0.625        0.648148        0.5783164230769231        0        
C4        C        0.65625        0.592592        0.5783164230769231        0        
C1        C        0.6875        0.018519        0.5783164230769231        0        
C2        C        0.71875        0.074075        0.5783164230769231        0        
C3        C        0.6875        0.092592        0.5783164230769231        0        
C4        C        0.71875        0.037037        0.5783164230769231        0        
C1        C        0.6875        0.12963        0.5783164230769231        0        
C2        C        0.71875        0.185185        0.5783164230769231        0        
C3        C        0.6875        0.203703        0.5783164230769231        0        
C4        C        0.71875        0.148148        0.5783164230769231        0        
C1        C        0.6875        0.24074099999999998        0.5783164230769231        0        
C2        C        0.71875        0.296297        0.5783164230769231        0        
C3        C        0.6875        0.314815        0.5783164230769231        0        
C4        C        0.71875        0.259259        0.5783164230769231        0        
C1        C        0.6875        0.351852        0.5783164230769231        0        
C2        C        0.71875        0.407408        0.5783164230769231        0        
C3        C        0.6875        0.42592500000000005        0.5783164230769231        0        
C4        C        0.71875        0.37037        0.5783164230769231        0        
C1        C        0.6875        0.46296300000000007        0.5783164230769231        0        
C2        C        0.71875        0.518519        0.5783164230769231        0        
C3        C        0.6875        0.537037        0.5783164230769231        0        
C4        C        0.71875        0.481481        0.5783164230769231        0        
C1        C        0.6875        0.574075        0.5783164230769231        0        
C2        C        0.71875        0.62963        0.5783164230769231        0        
C3        C        0.6875        0.648148        0.5783164230769231        0        
C4        C        0.71875        0.592592        0.5783164230769231        0        
C1        C        0.75        0.018519        0.5783164230769231        0        
C2        C        0.78125        0.074075        0.5783164230769231        0        
C3        C        0.75        0.092592        0.5783164230769231        0        
C4        C        0.78125        0.037037        0.5783164230769231        0        
C1        C        0.75        0.12963        0.5783164230769231        0        
C2        C        0.78125        0.185185        0.5783164230769231        0        
C3        C        0.75        0.203703        0.5783164230769231        0        
C4        C        0.78125        0.148148        0.5783164230769231        0        
C1        C        0.75        0.24074099999999998        0.5783164230769231        0        
C2        C        0.78125        0.296297        0.5783164230769231        0        
C3        C        0.75        0.314815        0.5783164230769231        0        
C4        C        0.78125        0.259259        0.5783164230769231        0        
C1        C        0.75        0.351852        0.5783164230769231        0        
C2        C        0.78125        0.407408        0.5783164230769231        0        
C3        C        0.75        0.42592500000000005        0.5783164230769231        0        
C4        C        0.78125        0.37037        0.5783164230769231        0        
C1        C        0.75        0.46296300000000007        0.5783164230769231        0        
C2        C        0.78125        0.518519        0.5783164230769231        0        
C3        C        0.75        0.537037        0.5783164230769231        0        
C4        C        0.78125        0.481481        0.5783164230769231        0        
C1        C        0.75        0.574075        0.5783164230769231        0        
C2        C        0.78125        0.62963        0.5783164230769231        0        
C3        C        0.75        0.648148        0.5783164230769231        0        
C4        C        0.78125        0.592592        0.5783164230769231        0        
C1        C        0.8125        0.018519        0.5783164230769231        0        
C2        C        0.84375        0.074075        0.5783164230769231        0        
C3        C        0.8125        0.092592        0.5783164230769231        0        
C4        C        0.84375        0.037037        0.5783164230769231        0        
C1        C        0.8125        0.12963        0.5783164230769231        0        
C2        C        0.84375        0.185185        0.5783164230769231        0        
C3        C        0.8125        0.203703        0.5783164230769231        0        
C4        C        0.84375        0.148148        0.5783164230769231        0        
C1        C        0.8125        0.24074099999999998        0.5783164230769231        0        
C2        C        0.84375        0.296297        0.5783164230769231        0        
C3        C        0.8125        0.314815        0.5783164230769231        0        
C4        C        0.84375        0.259259        0.5783164230769231        0        
C1        C        0.8125        0.351852        0.5783164230769231        0        
C2        C        0.84375        0.407408        0.5783164230769231        0        
C3        C        0.8125        0.42592500000000005        0.5783164230769231        0        
C4        C        0.84375        0.37037        0.5783164230769231        0        
C1        C        0.8125        0.46296300000000007        0.5783164230769231        0        
C2        C        0.84375        0.518519        0.5783164230769231        0        
C3        C        0.8125        0.537037        0.5783164230769231        0        
C4        C        0.84375        0.481481        0.5783164230769231        0        
C1        C        0.8125        0.574075        0.5783164230769231        0        
C2        C        0.84375        0.62963        0.5783164230769231        0        
C3        C        0.8125        0.648148        0.5783164230769231        0        
C4        C        0.84375        0.592592        0.5783164230769231        0        
C1        C        0.875        0.018519        0.5783164230769231        0        
C2        C        0.9062500000000001        0.074075        0.5783164230769231        0        
C3        C        0.875        0.092592        0.5783164230769231        0        
C4        C        0.9062500000000001        0.037037        0.5783164230769231        0        
C1        C        0.875        0.12963        0.5783164230769231        0        
C2        C        0.9062500000000001        0.185185        0.5783164230769231        0        
C3        C        0.875        0.203703        0.5783164230769231        0        
C4        C        0.9062500000000001        0.148148        0.5783164230769231        0        
C1        C        0.875        0.24074099999999998        0.5783164230769231        0        
C2        C        0.9062500000000001        0.296297        0.5783164230769231        0        
C3        C        0.875        0.314815        0.5783164230769231        0        
C4        C        0.9062500000000001        0.259259        0.5783164230769231        0        
C1        C        0.875        0.351852        0.5783164230769231        0        
C2        C        0.9062500000000001        0.407408        0.5783164230769231        0        
C3        C        0.875        0.42592500000000005        0.5783164230769231        0        
C4        C        0.9062500000000001        0.37037        0.5783164230769231        0        
C1        C        0.875        0.46296300000000007        0.5783164230769231        0        
C2        C        0.9062500000000001        0.518519        0.5783164230769231        0        
C3        C        0.875        0.537037        0.5783164230769231        0        
C4        C        0.9062500000000001        0.481481        0.5783164230769231        0        
C1        C        0.875        0.574075        0.5783164230769231        0        
C2        C        0.9062500000000001        0.62963        0.5783164230769231        0        
C3        C        0.875        0.648148        0.5783164230769231        0        
C4        C        0.9062500000000001        0.592592        0.5783164230769231        0        
C1        C        0.9375        0.018519        0.5783164230769231        0        
C2        C        0.9687500000000001        0.074075        0.5783164230769231        0        
C3        C        0.9375        0.092592        0.5783164230769231        0        
C4        C        0.9687500000000001        0.037037        0.5783164230769231        0        
C1        C        0.9375        0.12963        0.5783164230769231        0        
C2        C        0.9687500000000001        0.185185        0.5783164230769231        0        
C3        C        0.9375        0.203703        0.5783164230769231        0        
C4        C        0.9687500000000001        0.148148        0.5783164230769231        0        
C1        C        0.9375        0.24074099999999998        0.5783164230769231        0        
C2        C        0.9687500000000001        0.296297        0.5783164230769231        0        
C3        C        0.9375        0.314815        0.5783164230769231        0        
C4        C        0.9687500000000001        0.259259        0.5783164230769231        0        
C1        C        0.9375        0.351852        0.5783164230769231        0        
C2        C        0.9687500000000001        0.407408        0.5783164230769231        0        
C3        C        0.9375        0.42592500000000005        0.5783164230769231        0        
C4        C        0.9687500000000001        0.37037        0.5783164230769231        0        
C1        C        0.9375        0.46296300000000007        0.5783164230769231        0        
C2        C        0.9687500000000001        0.518519        0.5783164230769231        0        
C3        C        0.9375        0.537037        0.5783164230769231        0        
C4        C        0.9687500000000001        0.481481        0.5783164230769231        0        
C1        C        0.9375        0.574075        0.5783164230769231        0        
C2        C        0.9687500000000001        0.62963        0.5783164230769231        0        
C3        C        0.9375        0.648148        0.5783164230769231        0        
C4        C        0.9687500000000001        0.592592        0.5783164230769231        0        
C1        C        0.0        0.685186        0.5783164230769231        0        
C1        C        0.0625        0.685186        0.5783164230769231        0        
C1        C        0.125        0.685186        0.5783164230769231        0        
C1        C        0.1875        0.685186        0.5783164230769231        0        
C1        C        0.25        0.685186        0.5783164230769231        0        
C1        C        0.3125        0.685186        0.5783164230769231        0        
C1        C        0.375        0.685186        0.5783164230769231        0        
C1        C        0.4375        0.685186        0.5783164230769231        0        
C1        C        0.5        0.685186        0.5783164230769231        0        
C1        C        0.5625        0.685186        0.5783164230769231        0        
C1        C        0.625        0.685186        0.5783164230769231        0        
C1        C        0.6875        0.685186        0.5783164230769231        0        
C1        C        0.75        0.685186        0.5783164230769231        0        
C1        C        0.8125        0.685186        0.5783164230769231        0        
C1        C        0.875        0.685186        0.5783164230769231        0        
C1        C        0.9375        0.685186        0.5783164230769231        0        
C2        C        0.03125        0.740741        0.5783164230769231        0        
C2        C        0.09375        0.740741        0.5783164230769231        0        
C2        C        0.15625        0.740741        0.5783164230769231        0        
C2        C        0.21875        0.740741        0.5783164230769231        0        
C2        C        0.28125        0.740741        0.5783164230769231        0        
C2        C        0.34375        0.740741        0.5783164230769231        0        
C2        C        0.40625        0.740741        0.5783164230769231        0        
C2        C        0.46875        0.740741        0.5783164230769231        0        
C2        C        0.53125        0.740741        0.5783164230769231        0        
C2        C        0.59375        0.740741        0.5783164230769231        0        
C2        C        0.65625        0.740741        0.5783164230769231        0        
C2        C        0.71875        0.740741        0.5783164230769231        0        
C2        C        0.78125        0.740741        0.5783164230769231        0        
C2        C        0.84375        0.740741        0.5783164230769231        0        
C2        C        0.9062500000000001        0.740741        0.5783164230769231        0        
C2        C        0.9687500000000001        0.740741        0.5783164230769231        0        
C3        C        0.0        0.759259        0.5783164230769231        0        
C3        C        0.0625        0.759259        0.5783164230769231        0        
C3        C        0.125        0.759259        0.5783164230769231        0        
C3        C        0.1875        0.759259        0.5783164230769231        0        
C3        C        0.25        0.759259        0.5783164230769231        0        
C3        C        0.3125        0.759259        0.5783164230769231        0        
C3        C        0.375        0.759259        0.5783164230769231        0        
C3        C        0.4375        0.759259        0.5783164230769231        0        
C3        C        0.5        0.759259        0.5783164230769231        0        
C3        C        0.5625        0.759259        0.5783164230769231        0        
C3        C        0.625        0.759259        0.5783164230769231        0        
C3        C        0.6875        0.759259        0.5783164230769231        0        
C3        C        0.75        0.759259        0.5783164230769231        0        
C3        C        0.8125        0.759259        0.5783164230769231        0        
C3        C        0.875        0.759259        0.5783164230769231        0        
C3        C        0.9375        0.759259        0.5783164230769231        0        
C4        C        0.03125        0.703703        0.5783164230769231        0        
C4        C        0.09375        0.703703        0.5783164230769231        0        
C4        C        0.15625        0.703703        0.5783164230769231        0        
C4        C        0.21875        0.703703        0.5783164230769231        0        
C4        C        0.28125        0.703703        0.5783164230769231        0        
C4        C        0.34375        0.703703        0.5783164230769231        0        
C4        C        0.40625        0.703703        0.5783164230769231        0        
C4        C        0.46875        0.703703        0.5783164230769231        0        
C4        C        0.53125        0.703703        0.5783164230769231        0        
C4        C        0.59375        0.703703        0.5783164230769231        0        
C4        C        0.65625        0.703703        0.5783164230769231        0        
C4        C        0.71875        0.703703        0.5783164230769231        0        
C4        C        0.78125        0.703703        0.5783164230769231        0        
C4        C        0.84375        0.703703        0.5783164230769231        0        
C4        C        0.9062500000000001        0.703703        0.5783164230769231        0        
C4        C        0.9687500000000001        0.703703        0.5783164230769231        0        
C1        C        0.0        0.796297        0.5783164230769231        0        
C1        C        0.0625        0.796297        0.5783164230769231        0        
C1        C        0.125        0.796297        0.5783164230769231        0        
C1        C        0.1875        0.796297        0.5783164230769231        0        
C1        C        0.25        0.796297        0.5783164230769231        0        
C1        C        0.3125        0.796297        0.5783164230769231        0        
C1        C        0.375        0.796297        0.5783164230769231        0        
C1        C        0.4375        0.796297        0.5783164230769231        0        
C1        C        0.5        0.796297        0.5783164230769231        0        
C1        C        0.5625        0.796297        0.5783164230769231        0        
C1        C        0.625        0.796297        0.5783164230769231        0        
C1        C        0.6875        0.796297        0.5783164230769231        0        
C1        C        0.75        0.796297        0.5783164230769231        0        
C1        C        0.8125        0.796297        0.5783164230769231        0        
C1        C        0.875        0.796297        0.5783164230769231        0        
C1        C        0.9375        0.796297        0.5783164230769231        0        
C2        C        0.03125        0.851852        0.5783164230769231        0        
C2        C        0.09375        0.851852        0.5783164230769231        0        
C2        C        0.15625        0.851852        0.5783164230769231        0        
C2        C        0.21875        0.851852        0.5783164230769231        0        
C2        C        0.28125        0.851852        0.5783164230769231        0        
C2        C        0.34375        0.851852        0.5783164230769231        0        
C2        C        0.40625        0.851852        0.5783164230769231        0        
C2        C        0.46875        0.851852        0.5783164230769231        0        
C2        C        0.53125        0.851852        0.5783164230769231        0        
C2        C        0.59375        0.851852        0.5783164230769231        0        
C2        C        0.65625        0.851852        0.5783164230769231        0        
C2        C        0.71875        0.851852        0.5783164230769231        0        
C2        C        0.78125        0.851852        0.5783164230769231        0        
C2        C        0.84375        0.851852        0.5783164230769231        0        
C2        C        0.9062500000000001        0.851852        0.5783164230769231        0        
C2        C        0.9687500000000001        0.851852        0.5783164230769231        0        
C3        C        0.0        0.87037        0.5783164230769231        0        
C3        C        0.0625        0.87037        0.5783164230769231        0        
C3        C        0.125        0.87037        0.5783164230769231        0        
C3        C        0.1875        0.87037        0.5783164230769231        0        
C3        C        0.25        0.87037        0.5783164230769231        0        
C3        C        0.3125        0.87037        0.5783164230769231        0        
C3        C        0.375        0.87037        0.5783164230769231        0        
C3        C        0.4375        0.87037        0.5783164230769231        0        
C3        C        0.5        0.87037        0.5783164230769231        0        
C3        C        0.5625        0.87037        0.5783164230769231        0        
C3        C        0.625        0.87037        0.5783164230769231        0        
C3        C        0.6875        0.87037        0.5783164230769231        0        
C3        C        0.75        0.87037        0.5783164230769231        0        
C3        C        0.8125        0.87037        0.5783164230769231        0        
C3        C        0.875        0.87037        0.5783164230769231        0        
C3        C        0.9375        0.87037        0.5783164230769231        0        
C4        C        0.03125        0.814814        0.5783164230769231        0        
C4        C        0.09375        0.814814        0.5783164230769231        0        
C4        C        0.15625        0.814814        0.5783164230769231        0        
C4        C        0.21875        0.814814        0.5783164230769231        0        
C4        C        0.28125        0.814814        0.5783164230769231        0        
C4        C        0.34375        0.814814        0.5783164230769231        0        
C4        C        0.40625        0.814814        0.5783164230769231        0        
C4        C        0.46875        0.814814        0.5783164230769231        0        
C4        C        0.53125        0.814814        0.5783164230769231        0        
C4        C        0.59375        0.814814        0.5783164230769231        0        
C4        C        0.65625        0.814814        0.5783164230769231        0        
C4        C        0.71875        0.814814        0.5783164230769231        0        
C4        C        0.78125        0.814814        0.5783164230769231        0        
C4        C        0.84375        0.814814        0.5783164230769231        0        
C4        C        0.9062500000000001        0.814814        0.5783164230769231        0        
C4        C        0.9687500000000001        0.814814        0.5783164230769231        0        
C1        C        0.0        0.907408        0.5783164230769231        0        
C1        C        0.0625        0.907408        0.5783164230769231        0        
C1        C        0.125        0.907408        0.5783164230769231        0        
C1        C        0.1875        0.907408        0.5783164230769231        0        
C1        C        0.25        0.907408        0.5783164230769231        0        
C1        C        0.3125        0.907408        0.5783164230769231        0        
C1        C        0.375        0.907408        0.5783164230769231        0        
C1        C        0.4375        0.907408        0.5783164230769231        0        
C1        C        0.5        0.907408        0.5783164230769231        0        
C1        C        0.5625        0.907408        0.5783164230769231        0        
C1        C        0.625        0.907408        0.5783164230769231        0        
C1        C        0.6875        0.907408        0.5783164230769231        0        
C1        C        0.75        0.907408        0.5783164230769231        0        
C1        C        0.8125        0.907408        0.5783164230769231        0        
C1        C        0.875        0.907408        0.5783164230769231        0        
C1        C        0.9375        0.907408        0.5783164230769231        0        
C2        C        0.03125        0.962963        0.5783164230769231        0        
C2        C        0.09375        0.962963        0.5783164230769231        0        
C2        C        0.15625        0.962963        0.5783164230769231        0        
C2        C        0.21875        0.962963        0.5783164230769231        0        
C2        C        0.28125        0.962963        0.5783164230769231        0        
C2        C        0.34375        0.962963        0.5783164230769231        0        
C2        C        0.40625        0.962963        0.5783164230769231        0        
C2        C        0.46875        0.962963        0.5783164230769231        0        
C2        C        0.53125        0.962963        0.5783164230769231        0        
C2        C        0.59375        0.962963        0.5783164230769231        0        
C2        C        0.65625        0.962963        0.5783164230769231        0        
C2        C        0.71875        0.962963        0.5783164230769231        0        
C2        C        0.78125        0.962963        0.5783164230769231        0        
C2        C        0.84375        0.962963        0.5783164230769231        0        
C2        C        0.9062500000000001        0.962963        0.5783164230769231        0        
C2        C        0.9687500000000001        0.962963        0.5783164230769231        0        
C3        C        0.0        0.9814809999999999        0.5783164230769231        0        
C3        C        0.0625        0.9814809999999999        0.5783164230769231        0        
C3        C        0.125        0.9814809999999999        0.5783164230769231        0        
C3        C        0.1875        0.9814809999999999        0.5783164230769231        0        
C3        C        0.25        0.9814809999999999        0.5783164230769231        0        
C3        C        0.3125        0.9814809999999999        0.5783164230769231        0        
C3        C        0.375        0.9814809999999999        0.5783164230769231        0        
C3        C        0.4375        0.9814809999999999        0.5783164230769231        0        
C3        C        0.5        0.9814809999999999        0.5783164230769231        0        
C3        C        0.5625        0.9814809999999999        0.5783164230769231        0        
C3        C        0.625        0.9814809999999999        0.5783164230769231        0        
C3        C        0.6875        0.9814809999999999        0.5783164230769231        0        
C3        C        0.75        0.9814809999999999        0.5783164230769231        0        
C3        C        0.8125        0.9814809999999999        0.5783164230769231        0        
C3        C        0.875        0.9814809999999999        0.5783164230769231        0        
C3        C        0.9375        0.9814809999999999        0.5783164230769231        0        
C4        C        0.03125        0.925925        0.5783164230769231        0        
C4        C        0.09375        0.925925        0.5783164230769231        0        
C4        C        0.15625        0.925925        0.5783164230769231        0        
C4        C        0.21875        0.925925        0.5783164230769231        0        
C4        C        0.28125        0.925925        0.5783164230769231        0        
C4        C        0.34375        0.925925        0.5783164230769231        0        
C4        C        0.40625        0.925925        0.5783164230769231        0        
C4        C        0.46875        0.925925        0.5783164230769231        0        
C4        C        0.53125        0.925925        0.5783164230769231        0        
C4        C        0.59375        0.925925        0.5783164230769231        0        
C4        C        0.65625        0.925925        0.5783164230769231        0        
C4        C        0.71875        0.925925        0.5783164230769231        0        
C4        C        0.78125        0.925925        0.5783164230769231        0        
C4        C        0.84375        0.925925        0.5783164230769231        0        
C4        C        0.9062500000000001        0.925925        0.5783164230769231        0        
C4        C        0.9687500000000001        0.925925        0.5783164230769231        0        
O_OH        O        0.0        0.018519        0.056970448717948714        -0.64        
H_OH        H        0.02206340000489023        0.024603801490497415        0.03541923076923077        0.44        
O_CO        O        0.0        0.203703        0.056970448717948714        -0.5        
O_CO        O        0.0        0.351852        0.056970448717948714        -0.5        
O_OH        O        0.0        0.537037        0.056970448717948714        -0.64        
H_OH        H        0.019808497489819013        0.5487217095622204        0.03541923076923077        0.44        
C_COOH        C        0.25        0.018519        0.05139352564102564        0.55        
O1_COOH        O        0.2711042551720534        0.038629850458826935        0.0235051282051282        -0.5        
O2_COOH        O        0.2294519024049858        -0.0010618719415945554        0.0        -0.58        
H_COOH        H        0.21502676510087507        -0.014807999289181565        0.03742051282051283        0.45        
O_OH        O        0.25        0.203703        0.056970448717948714        -0.64        
H_OH        H        0.2728351350777411        0.20441494148700085        0.03541923076923077        0.44        
C_COOH        C        0.25        0.351852        0.05139352564102564        0.55        
O1_COOH        O        0.22121677734550654        0.3526932162855938        0.0235051282051282        -0.5        
O2_COOH        O        0.2780247022878472        0.3510329521732003        0.0        -0.58        
H_COOH        H        0.2976985517300998        0.35045796573926946        0.03742051282051283        0.45        
C_COOH        C        0.25        0.537037        0.05139352564102564        0.55        
O1_COOH        O        0.22125300274387147        0.5387411313656023        0.0235051282051282        -0.5        
O2_COOH        O        0.27798943153249706        0.5353777773773749        0.0        -0.58        
H_COOH        H        0.29763852026459664        0.5342129729939628        0.03742051282051283        0.45        
C_COOH        C        0.5        0.018519        0.05139352564102564        0.55        
O1_COOH        O        0.5287839166220274        0.01933480707737004        0.0235051282051282        -0.5        
O2_COOH        O        0.4719746220326513        0.017724691776002548        0.0        -0.58        
H_COOH        H        0.4523002982511301        0.017167072992075424        0.03742051282051283        0.45        
C_COOH        C        0.5        0.203703        0.05139352564102564        0.55        
O1_COOH        O        0.5228218283819467        0.22172887827362595        0.0235051282051282        -0.5        
O2_COOH        O        0.4777795921691711        0.186152155254112        0.0        -0.58        
H_COOH        H        0.462180462739748        0.17383114382753617        0.03742051282051283        0.45        
O_OH        O        0.5        0.351852        0.056970448717948714        -0.64        
H_OH        H        0.5104574520219006        0.3727040957299004        0.03541923076923077        0.44        
O_CO        O        0.5        0.537037        0.056970448717948714        -0.5        
C_COOH        C        0.75        0.018519        0.05139352564102564        0.55        
O1_COOH        O        0.7291812779782125        0.03894109834883778        0.0235051282051282        -0.5        
O2_COOH        O        0.7702700890611691        -0.0013649175581323088        0.0        -0.58        
H_COOH        H        0.7845000593307704        -0.015323788426512532        0.03742051282051283        0.45        
C_COOH        C        0.75        0.203703        0.05139352564102564        0.55        
O1_COOH        O        0.7286853512099477        0.2235786247181927        0.0235051282051282        -0.5        
O2_COOH        O        0.7707529467385051        0.18435115492696852        0.0        -0.58        
H_COOH        H        0.7853218918578078        0.1707658085962166        0.03742051282051283        0.45        
O_OH        O        0.75        0.351852        0.056970448717948714        -0.64        
H_OH        H        0.7354251279453778        0.3699125721480488        0.03541923076923077        0.44        
C_COOH        C        0.75        0.537037        0.05139352564102564        0.55        
O1_COOH        O        0.7773731242595547        0.5462110396610703        0.0235051282051282        -0.5        
O2_COOH        O        0.7233482359751502        0.528104722563086        0.0        -0.58        
H_COOH        H        0.7046382141019573        0.5218341017491595        0.03742051282051283        0.45        
O_CO        O        0.0        0.685186        0.056970448717948714        -0.5        
O_OH        O        0.25        0.685186        0.056970448717948714        -0.64        
H_OH        H        0.25082181018973443        0.7086242714103009        0.03541923076923077        0.44        
O_CO        O        0.5        0.685186        0.056970448717948714        -0.5        
O_CO        O        0.75        0.685186        0.056970448717948714        -0.5        
C_COOH        C        0.0        0.87037        0.05139352564102564        0.55        
O1_COOH        O        0.017989671137510436        0.8934518651265804        0.0235051282051282        -0.5        
O2_COOH        O        -0.01751559177152464        0.8478964081376352        0.0        -0.58        
H_COOH        H        -0.0298118549705228        0.8321195389247004        0.03742051282051283        0.45        
O_OH        O        0.25        0.87037        0.056970448717948714        -0.64        
H_OH        H        0.27280263610126665        0.8718087524402595        0.03541923076923077        0.44        
O_CO        O        0.5        0.87037        0.056970448717948714        -0.5        
C_COOH        C        0.75        0.87037        0.05139352564102564        0.55        
O1_COOH        O        0.7405547724933267        0.8982953861688651        0.0235051282051282        -0.5        
O2_COOH        O        0.759196318705966        0.8431805277491075        0.0        -0.58        
H_COOH        H        0.7656523012811175        0.8240930249458991        0.03742051282051283        0.45        
O_OH        O        0.0        0.018519        0.6701755769230769        -0.64        
H_OH        H        -0.016169780517934197        0.03508721046187785        0.6917267948717949        0.44        
O_CO        O        0.0        0.203703        0.6701755769230769        -0.5        
O_CO        O        0.0        0.351852        0.6701755769230769        -0.5        
O_OH        O        0.0        0.537037        0.6701755769230769        -0.64        
H_OH        H        0.022224232113279514        0.5424700377972828        0.6917267948717949        0.44        
C_COOH        C        0.25        0.018519        0.6757525        0.55        
O1_COOH        O        0.26641900900156906        0.04280337280623667        0.7036408974358974        -0.5        
O2_COOH        O        0.2340136789179643        -0.005125410020072208        0.7271460256410257        -0.58        
H_COOH        H        0.22279099148767298        -0.021724214821203403        0.6897255128205128        0.45        
O_OH        O        0.25        0.203703        0.6701755769230769        -0.64        
H_OH        H        0.26835363682053165        0.217668903805001        0.6917267948717949        0.44        
C_COOH        C        0.25        0.351852        0.6757525        0.55        
O1_COOH        O        0.22358855986288473        0.3636280561822896        0.7036408974358974        -0.5        
O2_COOH        O        0.27571542303378604        0.34038627663069176        0.7271460256410257        -0.58        
H_COOH        H        0.29376811654375184        0.33233713080936017        0.6897255128205128        0.45        
C_COOH        C        0.25        0.537037        0.6757525        0.55        
O1_COOH        O        0.24759042269467973        0.5664942635744192        0.7036408974358974        -0.5        
O2_COOH        O        0.25234607804107756        0.5083560197012609        0.7271460256410257        -0.58        
H_COOH        H        0.25399306738946936        0.4882214511888846        0.6897255128205128        0.45        
C_COOH        C        0.5        0.018519        0.6757525        0.55        
O1_COOH        O        0.5285257018511896        0.02255156607269769        0.7036408974358974        -0.5        
O2_COOH        O        0.4722260321046198        0.0145927035946257        0.7271460256410257        -0.58        
H_COOH        H        0.45272820275480996        0.011836372285497434        0.6897255128205128        0.45        
C_COOH        C        0.5        0.203703        0.6757525        0.55        
O1_COOH        O        0.4712337019977759        0.20501987693739954        0.7036408974358974        -0.5        
O2_COOH        O        0.5280082236486459        0.2024208265421022        0.7271460256410257        -0.58        
H_COOH        H        0.5476705047872167        0.20152071751291645        0.6897255128205128        0.45        
O_OH        O        0.5        0.351852        0.6701755769230769        -0.64        
H_OH        H        0.5167749917738385        0.3677734335379986        0.6917267948717949        0.44        
O_CO        O        0.5        0.537037        0.6701755769230769        -0.5        
C_COOH        C        0.75        0.018519        0.6757525        0.55        
O1_COOH        O        0.764722713517126        0.04392381183587021        0.7036408974358974        -0.5        
O2_COOH        O        0.7356652721573446        -0.0062163222717711245        0.7271460256410257        -0.58        
H_COOH        H        0.7256020331450119        -0.023580967265393507        0.6897255128205128        0.45        
C_COOH        C        0.75        0.203703        0.6757525        0.55        
O1_COOH        O        0.7244350191725615        0.2173060696960961        0.7036408974358974        -0.5        
O2_COOH        O        0.7748912703516068        0.19045841015646434        0.7271460256410257        -0.58        
H_COOH        H        0.7923653937265507        0.18116046779726558        0.6897255128205128        0.45        
O_OH        O        0.75        0.351852        0.6701755769230769        -0.64        
H_OH        H        0.7534668895067311        0.3750338246986209        0.6917267948717949        0.44        
C_COOH        C        0.75        0.537037        0.6757525        0.55        
O1_COOH        O        0.7359906491349876        0.5628634578914447        0.7036408974358974        -0.5        
O2_COOH        O        0.7636401643398564        0.5118911432540262        0.7271460256410257        -0.58        
H_COOH        H        0.7732158071721547        0.4942382956114207        0.6897255128205128        0.45        
O_CO        O        0.0        0.685186        0.6701755769230769        -0.5        
O_OH        O        0.25        0.685186        0.6701755769230769        -0.64        
H_OH        H        0.22807791748623898        0.6917872017177069        0.6917267948717949        0.44        
O_CO        O        0.5        0.685186        0.6701755769230769        -0.5        
O_CO        O        0.75        0.685186        0.6701755769230769        -0.5        
C_COOH        C        0.0        0.87037        0.6757525        0.55        
O1_COOH        O        -0.001061516289280955        0.8999108515292684        0.7036408974358974        -0.5        
O2_COOH        O        0.0010335422943391244        0.8416076345284602        0.7271460256410257        -0.58        
H_COOH        H        0.001759107735933341        0.8214159321482531        0.6897255128205128        0.45        
O_OH        O        0.25        0.87037        0.6701755769230769        -0.64        
H_OH        H        0.26236838384453964        0.8900890147479166        0.6917267948717949        0.44        
O_CO        O        0.5        0.87037        0.6701755769230769        -0.5        
C_COOH        C        0.75        0.87037        0.6757525        0.55        
O1_COOH        O        0.7730520411821927        0.8880844614077884        0.7036408974358974        -0.5        
O2_COOH        O        0.7275554461356575        0.8531223653934793        0.7271460256410257        -0.58        
H_COOH        H        0.7117989621241542        0.8410142129857081        0.6897255128205128        0.45        
